data_image0
_chemical_formula_structural       P5472
_chemical_formula_sum              "P5472"
_cell_length_a       87.8407
_cell_length_b       215.857
_cell_length_c       30.1089
_cell_angle_alpha    90
_cell_angle_beta     90
_cell_angle_gamma    146.608

_space_group_name_H-M_alt    "P 1"
_space_group_IT_number       1

loop_
  _space_group_symop_operation_xyz
  'x, y, z'

loop_
  _atom_site_type_symbol
  _atom_site_label
  _atom_site_symmetry_multiplicity
  _atom_site_fract_x
  _atom_site_fract_y
  _atom_site_fract_z
  _atom_site_occupancy
  P   P1        1.0  0.45423  0.99898  0.94925  1.0000
  P   P2        1.0  0.44520  0.99886  0.87870  1.0000
  P   P3        1.0  0.40031  0.99826  0.94937  1.0000
  P   P4        1.0  0.39128  0.99813  0.87879  1.0000
  P   P5        1.0  0.34635  0.99752  0.94938  1.0000
  P   P6        1.0  0.33732  0.99737  0.87876  1.0000
  P   P7        1.0  0.29232  0.99674  0.94923  1.0000
  P   P8        1.0  0.28327  0.99655  0.87855  1.0000
  P   P9        1.0  0.23812  0.99585  0.94883  1.0000
  P   P10       1.0  0.22901  0.99560  0.87808  1.0000
  P   P11       1.0  0.18360  0.99479  0.94815  1.0000
  P   P12       1.0  0.17430  0.99441  0.87731  1.0000
  P   P13       1.0  0.12841  0.99336  0.94728  1.0000
  P   P14       1.0  0.11866  0.99279  0.87649  1.0000
  P   P15       1.0  0.07187  0.99127  0.94691  1.0000
  P   P16       1.0  0.06153  0.99060  0.87655  1.0000
  P   P17       1.0  0.01396  0.98864  0.94798  1.0000
  P   P18       1.0  0.00331  0.98797  0.87806  1.0000
  P   P19       1.0  0.95593  0.98604  0.95027  1.0000
  P   P20       1.0  0.95533  0.99877  0.88060  1.0000
  P   P21       1.0  0.94478  0.98521  0.88055  1.0000
  P   P22       1.0  0.94307  0.99732  0.95074  1.0000
  P   P23       1.0  0.89664  0.98306  0.95215  1.0000
  P   P24       1.0  0.89626  0.99583  0.88185  1.0000
  P   P25       1.0  0.88570  0.98226  0.88225  1.0000
  P   P26       1.0  0.88357  0.99432  0.95161  1.0000
  P   P27       1.0  0.83719  0.98009  0.95297  1.0000
  P   P28       1.0  0.83766  0.99313  0.88179  1.0000
  P   P29       1.0  0.82707  0.97954  0.88270  1.0000
  P   P30       1.0  0.82541  0.99188  0.95144  1.0000
  P   P31       1.0  0.77914  0.97769  0.95247  1.0000
  P   P32       1.0  0.78048  0.99103  0.88054  1.0000
  P   P33       1.0  0.76984  0.97742  0.88188  1.0000
  P   P34       1.0  0.76928  0.99027  0.95031  1.0000
  P   P35       1.0  0.72309  0.97612  0.95118  1.0000
  P   P36       1.0  0.72478  0.98957  0.87914  1.0000
  P   P37       1.0  0.71410  0.97595  0.88049  1.0000
  P   P38       1.0  0.71436  0.98915  0.94908  1.0000
  P   P39       1.0  0.66823  0.97503  0.95003  1.0000
  P   P40       1.0  0.66997  0.98852  0.87818  1.0000
  P   P41       1.0  0.65928  0.97489  0.87937  1.0000
  P   P42       1.0  0.66001  0.98827  0.94825  1.0000
  P   P43       1.0  0.61390  0.97415  0.94933  1.0000
  P   P44       1.0  0.61564  0.98766  0.87770  1.0000
  P   P45       1.0  0.60493  0.97403  0.87872  1.0000
  P   P46       1.0  0.60592  0.98749  0.94786  1.0000
  P   P47       1.0  0.55982  0.97338  0.94902  1.0000
  P   P48       1.0  0.56153  0.98690  0.87754  1.0000
  P   P49       1.0  0.55082  0.97326  0.87845  1.0000
  P   P50       1.0  0.55194  0.98676  0.94776  1.0000
  P   P51       1.0  0.50585  0.97266  0.94898  1.0000
  P   P52       1.0  0.50754  0.98618  0.87758  1.0000
  P   P53       1.0  0.49683  0.97253  0.87843  1.0000
  P   P54       1.0  0.49801  0.98605  0.94783  1.0000
  P   P55       1.0  0.45192  0.97195  0.94908  1.0000
  P   P56       1.0  0.45360  0.98546  0.87771  1.0000
  P   P57       1.0  0.44289  0.97182  0.87853  1.0000
  P   P58       1.0  0.44409  0.98535  0.94797  1.0000
  P   P59       1.0  0.39801  0.97124  0.94922  1.0000
  P   P60       1.0  0.39968  0.98475  0.87783  1.0000
  P   P61       1.0  0.38898  0.97111  0.87866  1.0000
  P   P62       1.0  0.39017  0.98463  0.94810  1.0000
  P   P63       1.0  0.34409  0.97052  0.94933  1.0000
  P   P64       1.0  0.34576  0.98402  0.87788  1.0000
  P   P65       1.0  0.33506  0.97039  0.87874  1.0000
  P   P66       1.0  0.33622  0.98390  0.94814  1.0000
  P   P67       1.0  0.29013  0.96978  0.94933  1.0000
  P   P68       1.0  0.29180  0.98326  0.87779  1.0000
  P   P69       1.0  0.28111  0.96963  0.87870  1.0000
  P   P70       1.0  0.28220  0.98311  0.94803  1.0000
  P   P71       1.0  0.23610  0.96899  0.94915  1.0000
  P   P72       1.0  0.23774  0.98243  0.87749  1.0000
  P   P73       1.0  0.22706  0.96880  0.87846  1.0000
  P   P74       1.0  0.22801  0.98223  0.94769  1.0000
  P   P75       1.0  0.18190  0.96810  0.94872  1.0000
  P   P76       1.0  0.18346  0.98146  0.87690  1.0000
  P   P77       1.0  0.17279  0.96784  0.87794  1.0000
  P   P78       1.0  0.17349  0.98117  0.94706  1.0000
  P   P79       1.0  0.12736  0.96702  0.94798  1.0000
  P   P80       1.0  0.12872  0.98025  0.87607  1.0000
  P   P81       1.0  0.11805  0.96663  0.87713  1.0000
  P   P82       1.0  0.11830  0.97975  0.94621  1.0000
  P   P83       1.0  0.07212  0.96557  0.94708  1.0000
  P   P84       1.0  0.07302  0.97862  0.87554  1.0000
  P   P85       1.0  0.06236  0.96500  0.87631  1.0000
  P   P86       1.0  0.06177  0.97768  0.94572  1.0000
  P   P87       1.0  0.01551  0.96346  0.94677  1.0000
  P   P88       1.0  0.01585  0.97641  0.87646  1.0000
  P   P89       1.0  0.00518  0.96280  0.87644  1.0000
  P   P90       1.0  0.00396  0.97509  0.94678  1.0000
  P   P91       1.0  0.95764  0.96085  0.94797  1.0000
  P   P92       1.0  0.95765  0.97380  0.87849  1.0000
  P   P93       1.0  0.94701  0.96021  0.87808  1.0000
  P   P94       1.0  0.94604  0.97253  0.94898  1.0000
  P   P95       1.0  0.89966  0.95828  0.95040  1.0000
  P   P96       1.0  0.89913  0.97104  0.88082  1.0000
  P   P97       1.0  0.88855  0.95747  0.88069  1.0000
  P   P98       1.0  0.88682  0.96957  0.95095  1.0000
  P   P99       1.0  0.84040  0.95531  0.95233  1.0000
  P   P100      1.0  0.84007  0.96811  0.88210  1.0000
  P   P101      1.0  0.82950  0.95454  0.88243  1.0000
  P   P102      1.0  0.82736  0.96659  0.95186  1.0000
  P   P103      1.0  0.78097  0.95235  0.95318  1.0000
  P   P104      1.0  0.78149  0.96541  0.88204  1.0000
  P   P105      1.0  0.77089  0.95183  0.88290  1.0000
  P   P106      1.0  0.76921  0.96416  0.95169  1.0000
  P   P107      1.0  0.72293  0.94997  0.95267  1.0000
  P   P108      1.0  0.72431  0.96331  0.88078  1.0000
  P   P109      1.0  0.71367  0.94971  0.88208  1.0000
  P   P110      1.0  0.71306  0.96254  0.95054  1.0000
  P   P111      1.0  0.66688  0.94839  0.95136  1.0000
  P   P112      1.0  0.66858  0.96185  0.87933  1.0000
  P   P113      1.0  0.65792  0.94823  0.88067  1.0000
  P   P114      1.0  0.65813  0.96141  0.94925  1.0000
  P   P115      1.0  0.61200  0.94729  0.95017  1.0000
  P   P116      1.0  0.61376  0.96079  0.87831  1.0000
  P   P117      1.0  0.60307  0.94715  0.87950  1.0000
  P   P118      1.0  0.60377  0.96053  0.94836  1.0000
  P   P119      1.0  0.55767  0.94641  0.94941  1.0000
  P   P120      1.0  0.55941  0.95993  0.87776  1.0000
  P   P121      1.0  0.54870  0.94629  0.87879  1.0000
  P   P122      1.0  0.54967  0.95975  0.94791  1.0000
  P   P123      1.0  0.50358  0.94564  0.94906  1.0000
  P   P124      1.0  0.50530  0.95916  0.87756  1.0000
  P   P125      1.0  0.49458  0.94552  0.87848  1.0000
  P   P126      1.0  0.49569  0.95902  0.94777  1.0000
  P   P127      1.0  0.44960  0.94491  0.94899  1.0000
  P   P128      1.0  0.45131  0.95843  0.87757  1.0000
  P   P129      1.0  0.44059  0.94479  0.87843  1.0000
  P   P130      1.0  0.44176  0.95831  0.94782  1.0000
  P   P131      1.0  0.39568  0.94420  0.94907  1.0000
  P   P132      1.0  0.39737  0.95772  0.87768  1.0000
  P   P133      1.0  0.38665  0.94408  0.87852  1.0000
  P   P134      1.0  0.38785  0.95760  0.94795  1.0000
  P   P135      1.0  0.34177  0.94349  0.94920  1.0000
  P   P136      1.0  0.34346  0.95701  0.87780  1.0000
  P   P137      1.0  0.33274  0.94336  0.87864  1.0000
  P   P138      1.0  0.33394  0.95689  0.94806  1.0000
  P   P139      1.0  0.28785  0.94277  0.94930  1.0000
  P   P140      1.0  0.28954  0.95628  0.87784  1.0000
  P   P141      1.0  0.27882  0.94264  0.87871  1.0000
  P   P142      1.0  0.27999  0.95615  0.94809  1.0000
  P   P143      1.0  0.23390  0.94203  0.94928  1.0000
  P   P144      1.0  0.23558  0.95551  0.87773  1.0000
  P   P145      1.0  0.22487  0.94187  0.87865  1.0000
  P   P146      1.0  0.22596  0.95536  0.94796  1.0000
  P   P147      1.0  0.17987  0.94124  0.94908  1.0000
  P   P148      1.0  0.18152  0.95468  0.87739  1.0000
  P   P149      1.0  0.17082  0.94104  0.87839  1.0000
  P   P150      1.0  0.17176  0.95447  0.94759  1.0000
  P   P151      1.0  0.12566  0.94035  0.94861  1.0000
  P   P152      1.0  0.12723  0.95371  0.87677  1.0000
  P   P153      1.0  0.11653  0.94008  0.87784  1.0000
  P   P154      1.0  0.11723  0.95340  0.94692  1.0000
  P   P155      1.0  0.07110  0.93926  0.94784  1.0000
  P   P156      1.0  0.07246  0.95248  0.87591  1.0000
  P   P157      1.0  0.06177  0.93886  0.87699  1.0000
  P   P158      1.0  0.06199  0.95196  0.94604  1.0000
  P   P159      1.0  0.01582  0.93779  0.94692  1.0000
  P   P160      1.0  0.01671  0.95083  0.87541  1.0000
  P   P161      1.0  0.00602  0.93721  0.87617  1.0000
  P   P162      1.0  0.00539  0.94986  0.94559  1.0000
  P   P163      1.0  0.95913  0.93565  0.94667  1.0000
  P   P164      1.0  0.95950  0.94862  0.87642  1.0000
  P   P165      1.0  0.94881  0.93500  0.87637  1.0000
  P   P166      1.0  0.94763  0.94730  0.94676  1.0000
  P   P167      1.0  0.90131  0.93306  0.94798  1.0000
  P   P168      1.0  0.90135  0.94604  0.87854  1.0000
  P   P169      1.0  0.89070  0.93243  0.87811  1.0000
  P   P170      1.0  0.88976  0.94477  0.94906  1.0000
  P   P171      1.0  0.84339  0.93052  0.95050  1.0000
  P   P172      1.0  0.84290  0.94330  0.88096  1.0000
  P   P173      1.0  0.83231  0.92973  0.88079  1.0000
  P   P174      1.0  0.83058  0.94183  0.95108  1.0000
  P   P175      1.0  0.78416  0.92757  0.95244  1.0000
  P   P176      1.0  0.78387  0.94039  0.88225  1.0000
  P   P177      1.0  0.77331  0.92682  0.88254  1.0000
  P   P178      1.0  0.77115  0.93886  0.95202  1.0000
  P   P179      1.0  0.72477  0.92463  0.95331  1.0000
  P   P180      1.0  0.72531  0.93770  0.88221  1.0000
  P   P181      1.0  0.71472  0.92412  0.88302  1.0000
  P   P182      1.0  0.71302  0.93643  0.95186  1.0000
  P   P183      1.0  0.66674  0.92225  0.95281  1.0000
  P   P184      1.0  0.66813  0.93560  0.88095  1.0000
  P   P185      1.0  0.65750  0.92199  0.88221  1.0000
  P   P186      1.0  0.65686  0.93481  0.95070  1.0000
  P   P187      1.0  0.61067  0.92066  0.95149  1.0000
  P   P188      1.0  0.61240  0.93413  0.87947  1.0000
  P   P189      1.0  0.60173  0.92051  0.88079  1.0000
  P   P190      1.0  0.60191  0.93368  0.94938  1.0000
  P   P191      1.0  0.55578  0.91955  0.95026  1.0000
  P   P192      1.0  0.55755  0.93306  0.87840  1.0000
  P   P193      1.0  0.54686  0.91943  0.87959  1.0000
  P   P194      1.0  0.54754  0.93279  0.94845  1.0000
  P   P195      1.0  0.50143  0.91867  0.94948  1.0000
  P   P196      1.0  0.50319  0.93219  0.87781  1.0000
  P   P197      1.0  0.49248  0.91855  0.87885  1.0000
  P   P198      1.0  0.49343  0.93201  0.94796  1.0000
  P   P199      1.0  0.44734  0.91790  0.94909  1.0000
  P   P200      1.0  0.44907  0.93142  0.87758  1.0000
  P   P201      1.0  0.43835  0.91778  0.87851  1.0000
  P   P202      1.0  0.43945  0.93127  0.94779  1.0000
  P   P203      1.0  0.39336  0.91717  0.94900  1.0000
  P   P204      1.0  0.39507  0.93069  0.87757  1.0000
  P   P205      1.0  0.38434  0.91704  0.87844  1.0000
  P   P206      1.0  0.38552  0.93056  0.94782  1.0000
  P   P207      1.0  0.33943  0.91645  0.94907  1.0000
  P   P208      1.0  0.34113  0.92998  0.87767  1.0000
  P   P209      1.0  0.33040  0.91633  0.87851  1.0000
  P   P210      1.0  0.33161  0.92985  0.94793  1.0000
  P   P211      1.0  0.28552  0.91575  0.94919  1.0000
  P   P212      1.0  0.28722  0.92926  0.87778  1.0000
  P   P213      1.0  0.27649  0.91561  0.87863  1.0000
  P   P214      1.0  0.27770  0.92914  0.94804  1.0000
  P   P215      1.0  0.23161  0.91503  0.94928  1.0000
  P   P216      1.0  0.23331  0.92853  0.87781  1.0000
  P   P217      1.0  0.22257  0.91488  0.87869  1.0000
  P   P218      1.0  0.22375  0.92840  0.94806  1.0000
  P   P219      1.0  0.17766  0.91428  0.94926  1.0000
  P   P220      1.0  0.17935  0.92776  0.87768  1.0000
  P   P221      1.0  0.16862  0.91412  0.87862  1.0000
  P   P222      1.0  0.16971  0.92760  0.94791  1.0000
  P   P223      1.0  0.12362  0.91349  0.94904  1.0000
  P   P224      1.0  0.12528  0.92692  0.87732  1.0000
  P   P225      1.0  0.11456  0.91328  0.87834  1.0000
  P   P226      1.0  0.11551  0.92671  0.94752  1.0000
  P   P227      1.0  0.06940  0.91259  0.94854  1.0000
  P   P228      1.0  0.07098  0.92594  0.87667  1.0000
  P   P229      1.0  0.06026  0.91231  0.87776  1.0000
  P   P230      1.0  0.06095  0.92563  0.94681  1.0000
  P   P231      1.0  0.01482  0.91149  0.94774  1.0000
  P   P232      1.0  0.01618  0.92471  0.87578  1.0000
  P   P233      1.0  0.00546  0.91108  0.87688  1.0000
  P   P234      1.0  0.00567  0.92417  0.94591  1.0000
  P   P235      1.0  0.95950  0.91000  0.94681  1.0000
  P   P236      1.0  0.96037  0.92304  0.87533  1.0000
  P   P237      1.0  0.94966  0.90941  0.87608  1.0000
  P   P238      1.0  0.94901  0.92205  0.94551  1.0000
  P   P239      1.0  0.90275  0.90783  0.94662  1.0000
  P   P240      1.0  0.90313  0.92082  0.87641  1.0000
  P   P241      1.0  0.89243  0.90720  0.87634  1.0000
  P   P242      1.0  0.89129  0.91951  0.94677  1.0000
  P   P243      1.0  0.84498  0.90527  0.94801  1.0000
  P   P244      1.0  0.84504  0.91826  0.87860  1.0000
  P   P245      1.0  0.83438  0.90466  0.87815  1.0000
  P   P246      1.0  0.83348  0.91701  0.94913  1.0000
  P   P247      1.0  0.78711  0.90276  0.95059  1.0000
  P   P248      1.0  0.78666  0.91556  0.88104  1.0000
  P   P249      1.0  0.77607  0.90198  0.88086  1.0000
  P   P250      1.0  0.77434  0.91409  0.95117  1.0000
  P   P251      1.0  0.72793  0.89983  0.95251  1.0000
  P   P252      1.0  0.72768  0.91266  0.88233  1.0000
  P   P253      1.0  0.71713  0.89910  0.88260  1.0000
  P   P254      1.0  0.71497  0.91114  0.95210  1.0000
  P   P255      1.0  0.66859  0.89690  0.95336  1.0000
  P   P256      1.0  0.66914  0.90999  0.88230  1.0000
  P   P257      1.0  0.65857  0.89641  0.88308  1.0000
  P   P258      1.0  0.65684  0.90872  0.95196  1.0000
  P   P259      1.0  0.61057  0.89453  0.95287  1.0000
  P   P260      1.0  0.61196  0.90789  0.88105  1.0000
  P   P261      1.0  0.60134  0.89428  0.88228  1.0000
  P   P262      1.0  0.60067  0.90709  0.95080  1.0000
  P   P263      1.0  0.55448  0.89294  0.95156  1.0000
  P   P264      1.0  0.55621  0.90641  0.87956  1.0000
  P   P265      1.0  0.54555  0.89279  0.88086  1.0000
  P   P266      1.0  0.54570  0.90595  0.94946  1.0000
  P   P267      1.0  0.49956  0.89182  0.95032  1.0000
  P   P268      1.0  0.50135  0.90533  0.87847  1.0000
  P   P269      1.0  0.49066  0.89170  0.87965  1.0000
  P   P270      1.0  0.49131  0.90505  0.94851  1.0000
  P   P271      1.0  0.44520  0.89094  0.94952  1.0000
  P   P272      1.0  0.44696  0.90445  0.87786  1.0000
  P   P273      1.0  0.43626  0.89082  0.87889  1.0000
  P   P274      1.0  0.43719  0.90426  0.94799  1.0000
  P   P275      1.0  0.39110  0.89015  0.94912  1.0000
  P   P276      1.0  0.39283  0.90368  0.87760  1.0000
  P   P277      1.0  0.38211  0.89003  0.87854  1.0000
  P   P278      1.0  0.38320  0.90353  0.94781  1.0000
  P   P279      1.0  0.33711  0.88942  0.94902  1.0000
  P   P280      1.0  0.33883  0.90294  0.87758  1.0000
  P   P281      1.0  0.32809  0.88930  0.87846  1.0000
  P   P282      1.0  0.32927  0.90282  0.94782  1.0000
  P   P283      1.0  0.28318  0.88871  0.94908  1.0000
  P   P284      1.0  0.28488  0.90223  0.87767  1.0000
  P   P285      1.0  0.27414  0.88858  0.87852  1.0000
  P   P286      1.0  0.27536  0.90211  0.94793  1.0000
  P   P287      1.0  0.22927  0.88800  0.94920  1.0000
  P   P288      1.0  0.23097  0.90151  0.87778  1.0000
  P   P289      1.0  0.22023  0.88786  0.87864  1.0000
  P   P290      1.0  0.22144  0.90139  0.94804  1.0000
  P   P291      1.0  0.17536  0.88728  0.94929  1.0000
  P   P292      1.0  0.17705  0.90078  0.87780  1.0000
  P   P293      1.0  0.16631  0.88713  0.87870  1.0000
  P   P294      1.0  0.16749  0.90064  0.94806  1.0000
  P   P295      1.0  0.12140  0.88653  0.94926  1.0000
  P   P296      1.0  0.12309  0.90001  0.87767  1.0000
  P   P297      1.0  0.11235  0.88636  0.87863  1.0000
  P   P298      1.0  0.11346  0.89985  0.94789  1.0000
  P   P299      1.0  0.06736  0.88574  0.94903  1.0000
  P   P300      1.0  0.06902  0.89917  0.87729  1.0000
  P   P301      1.0  0.05828  0.88552  0.87833  1.0000
  P   P302      1.0  0.05924  0.89895  0.94747  1.0000
  P   P303      1.0  0.01313  0.88483  0.94851  1.0000
  P   P304      1.0  0.01470  0.89818  0.87661  1.0000
  P   P305      1.0  0.00396  0.88454  0.87772  1.0000
  P   P306      1.0  0.00466  0.89786  0.94674  1.0000
  P   P307      1.0  0.95853  0.88372  0.94768  1.0000
  P   P308      1.0  0.95987  0.89693  0.87571  1.0000
  P   P309      1.0  0.94914  0.88329  0.87682  1.0000
  P   P310      1.0  0.94933  0.89637  0.94583  1.0000
  P   P311      1.0  0.90315  0.88221  0.94675  1.0000
  P   P312      1.0  0.90401  0.89524  0.87529  1.0000
  P   P313      1.0  0.89329  0.88161  0.87603  1.0000
  P   P314      1.0  0.89261  0.89423  0.94547  1.0000
  P   P315      1.0  0.84635  0.88001  0.94661  1.0000
  P   P316      1.0  0.84675  0.89302  0.87643  1.0000
  P   P317      1.0  0.83604  0.87939  0.87635  1.0000
  P   P318      1.0  0.83496  0.89172  0.94680  1.0000
  P   P319      1.0  0.78864  0.87748  0.94807  1.0000
  P   P320      1.0  0.78872  0.89048  0.87865  1.0000
  P   P321      1.0  0.77807  0.87688  0.87821  1.0000
  P   P322      1.0  0.77720  0.88924  0.94919  1.0000
  P   P323      1.0  0.73084  0.87500  0.95066  1.0000
  P   P324      1.0  0.73042  0.88781  0.88110  1.0000
  P   P325      1.0  0.71984  0.87423  0.88092  1.0000
  P   P326      1.0  0.71812  0.88635  0.95122  1.0000
  P   P327      1.0  0.67171  0.87209  0.95254  1.0000
  P   P328      1.0  0.67150  0.88494  0.88236  1.0000
  P   P329      1.0  0.66095  0.87137  0.88261  1.0000
  P   P330      1.0  0.65880  0.88342  0.95213  1.0000
  P   P331      1.0  0.61242  0.86919  0.95337  1.0000
  P   P332      1.0  0.61299  0.88228  0.88233  1.0000
  P   P333      1.0  0.60243  0.86870  0.88308  1.0000
  P   P334      1.0  0.60068  0.88100  0.95199  1.0000
  P   P335      1.0  0.55441  0.86681  0.95288  1.0000
  P   P336      1.0  0.55581  0.88018  0.88109  1.0000
  P   P337      1.0  0.54519  0.86658  0.88229  1.0000
  P   P338      1.0  0.54448  0.87937  0.95084  1.0000
  P   P339      1.0  0.49830  0.86522  0.95158  1.0000
  P   P340      1.0  0.50003  0.87869  0.87961  1.0000
  P   P341      1.0  0.48938  0.86507  0.88088  1.0000
  P   P342      1.0  0.48949  0.87822  0.94951  1.0000
  P   P343      1.0  0.44336  0.86409  0.95035  1.0000
  P   P344      1.0  0.44514  0.87760  0.87851  1.0000
  P   P345      1.0  0.43446  0.86397  0.87968  1.0000
  P   P346      1.0  0.43509  0.87731  0.94855  1.0000
  P   P347      1.0  0.38898  0.86320  0.94954  1.0000
  P   P348      1.0  0.39074  0.87672  0.87788  1.0000
  P   P349      1.0  0.38003  0.86308  0.87892  1.0000
  P   P350      1.0  0.38095  0.87652  0.94802  1.0000
  P   P351      1.0  0.33486  0.86241  0.94914  1.0000
  P   P352      1.0  0.33659  0.87594  0.87762  1.0000
  P   P353      1.0  0.32587  0.86229  0.87856  1.0000
  P   P354      1.0  0.32695  0.87578  0.94783  1.0000
  P   P355      1.0  0.28086  0.86168  0.94904  1.0000
  P   P356      1.0  0.28258  0.87520  0.87760  1.0000
  P   P357      1.0  0.27184  0.86155  0.87848  1.0000
  P   P358      1.0  0.27302  0.87507  0.94784  1.0000
  P   P359      1.0  0.22693  0.86096  0.94911  1.0000
  P   P360      1.0  0.22863  0.87448  0.87769  1.0000
  P   P361      1.0  0.21788  0.86083  0.87855  1.0000
  P   P362      1.0  0.21910  0.87436  0.94796  1.0000
  P   P363      1.0  0.17302  0.86025  0.94924  1.0000
  P   P364      1.0  0.17471  0.87376  0.87780  1.0000
  P   P365      1.0  0.16396  0.86011  0.87868  1.0000
  P   P366      1.0  0.16518  0.87364  0.94807  1.0000
  P   P367      1.0  0.11910  0.85953  0.94933  1.0000
  P   P368      1.0  0.12079  0.87302  0.87783  1.0000
  P   P369      1.0  0.11003  0.85937  0.87874  1.0000
  P   P370      1.0  0.11123  0.87289  0.94808  1.0000
  P   P371      1.0  0.06514  0.85878  0.94930  1.0000
  P   P372      1.0  0.06682  0.87225  0.87769  1.0000
  P   P373      1.0  0.05607  0.85860  0.87867  1.0000
  P   P374      1.0  0.05718  0.87209  0.94791  1.0000
  P   P375      1.0  0.01109  0.85798  0.94906  1.0000
  P   P376      1.0  0.01274  0.87140  0.87729  1.0000
  P   P377      1.0  0.00199  0.85775  0.87836  1.0000
  P   P378      1.0  0.00295  0.87119  0.94747  1.0000
  P   P379      1.0  0.95685  0.85707  0.94853  1.0000
  P   P380      1.0  0.95841  0.87041  0.87659  1.0000
  P   P381      1.0  0.94765  0.85676  0.87774  1.0000
  P   P382      1.0  0.94835  0.87008  0.94672  1.0000
  P   P383      1.0  0.90222  0.85595  0.94767  1.0000
  P   P384      1.0  0.90354  0.86914  0.87568  1.0000
  P   P385      1.0  0.89279  0.85550  0.87682  1.0000
  P   P386      1.0  0.89298  0.86858  0.94579  1.0000
  P   P387      1.0  0.84679  0.85441  0.94675  1.0000
  P   P388      1.0  0.84763  0.86744  0.87531  1.0000
  P   P389      1.0  0.83690  0.85380  0.87604  1.0000
  P   P390      1.0  0.83621  0.86641  0.94549  1.0000
  P   P391      1.0  0.78994  0.85219  0.94665  1.0000
  P   P392      1.0  0.79035  0.86520  0.87648  1.0000
  P   P393      1.0  0.77964  0.85157  0.87641  1.0000
  P   P394      1.0  0.77862  0.86393  0.94687  1.0000
  P   P395      1.0  0.73230  0.84969  0.94815  1.0000
  P   P396      1.0  0.73240  0.86270  0.87871  1.0000
  P   P397      1.0  0.72175  0.84909  0.87828  1.0000
  P   P398      1.0  0.72092  0.86148  0.94925  1.0000
  P   P399      1.0  0.67456  0.84723  0.95072  1.0000
  P   P400      1.0  0.67418  0.86006  0.88112  1.0000
  P   P401      1.0  0.66361  0.84648  0.88096  1.0000
  P   P402      1.0  0.66191  0.85861  0.95125  1.0000
  P   P403      1.0  0.61550  0.84436  0.95253  1.0000
  P   P404      1.0  0.61533  0.85721  0.88234  1.0000
  P   P405      1.0  0.60480  0.84365  0.88258  1.0000
  P   P406      1.0  0.60264  0.85571  0.95211  1.0000
  P   P407      1.0  0.55627  0.84148  0.95331  1.0000
  P   P408      1.0  0.55685  0.85457  0.88230  1.0000
  P   P409      1.0  0.54630  0.84100  0.88302  1.0000
  P   P410      1.0  0.54453  0.85329  0.95196  1.0000
  P   P411      1.0  0.49826  0.83910  0.95283  1.0000
  P   P412      1.0  0.49966  0.85247  0.88108  1.0000
  P   P413      1.0  0.48906  0.83888  0.88225  1.0000
  P   P414      1.0  0.48831  0.85165  0.95083  1.0000
  P   P415      1.0  0.44213  0.83750  0.95155  1.0000
  P   P416      1.0  0.44386  0.85098  0.87961  1.0000
  P   P417      1.0  0.43321  0.83736  0.88086  1.0000
  P   P418      1.0  0.43330  0.85049  0.94951  1.0000
  P   P419      1.0  0.38716  0.83637  0.95034  1.0000
  P   P420      1.0  0.38895  0.84988  0.87852  1.0000
  P   P421      1.0  0.37826  0.83625  0.87967  1.0000
  P   P422      1.0  0.37887  0.84958  0.94856  1.0000
  P   P423      1.0  0.33276  0.83546  0.94955  1.0000
  P   P424      1.0  0.33452  0.84898  0.87790  1.0000
  P   P425      1.0  0.32381  0.83535  0.87893  1.0000
  P   P426      1.0  0.32472  0.84878  0.94804  1.0000
  P   P427      1.0  0.27862  0.83467  0.94916  1.0000
  P   P428      1.0  0.28035  0.84819  0.87765  1.0000
  P   P429      1.0  0.26963  0.83455  0.87859  1.0000
  P   P430      1.0  0.27071  0.84804  0.94785  1.0000
  P   P431      1.0  0.22462  0.83393  0.94907  1.0000
  P   P432      1.0  0.22632  0.84745  0.87763  1.0000
  P   P433      1.0  0.21558  0.83380  0.87852  1.0000
  P   P434      1.0  0.21676  0.84732  0.94788  1.0000
  P   P435      1.0  0.17067  0.83321  0.94915  1.0000
  P   P436      1.0  0.17236  0.84673  0.87774  1.0000
  P   P437      1.0  0.16161  0.83308  0.87861  1.0000
  P   P438      1.0  0.16284  0.84661  0.94800  1.0000
  P   P439      1.0  0.11675  0.83250  0.94930  1.0000
  P   P440      1.0  0.11844  0.84601  0.87786  1.0000
  P   P441      1.0  0.10768  0.83235  0.87874  1.0000
  P   P442      1.0  0.10892  0.84589  0.94812  1.0000
  P   P443      1.0  0.06283  0.83178  0.94941  1.0000
  P   P444      1.0  0.06451  0.84527  0.87789  1.0000
  P   P445      1.0  0.05374  0.83161  0.87882  1.0000
  P   P446      1.0  0.05495  0.84514  0.94814  1.0000
  P   P447      1.0  0.00887  0.83103  0.94938  1.0000
  P   P448      1.0  0.01054  0.84449  0.87775  1.0000
  P   P449      1.0  0.99977  0.83084  0.87875  1.0000
  P   P450      1.0  0.00090  0.84434  0.94797  1.0000
  P   P451      1.0  0.95481  0.83023  0.94914  1.0000
  P   P452      1.0  0.95645  0.84364  0.87735  1.0000
  P   P453      1.0  0.94568  0.82998  0.87844  1.0000
  P   P454      1.0  0.94666  0.84343  0.94752  1.0000
  P   P455      1.0  0.90055  0.82931  0.94860  1.0000
  P   P456      1.0  0.90209  0.84263  0.87663  1.0000
  P   P457      1.0  0.89132  0.82898  0.87781  1.0000
  P   P458      1.0  0.89202  0.84231  0.94675  1.0000
  P   P459      1.0  0.84589  0.82817  0.94773  1.0000
  P   P460      1.0  0.84719  0.84135  0.87571  1.0000
  P   P461      1.0  0.83643  0.82770  0.87687  1.0000
  P   P462      1.0  0.83660  0.84077  0.94582  1.0000
  P   P463      1.0  0.79041  0.82660  0.94680  1.0000
  P   P464      1.0  0.79123  0.83962  0.87537  1.0000
  P   P465      1.0  0.78048  0.82598  0.87611  1.0000
  P   P466      1.0  0.77979  0.83859  0.94556  1.0000
  P   P467      1.0  0.73352  0.82436  0.94675  1.0000
  P   P468      1.0  0.73396  0.83739  0.87657  1.0000
  P   P469      1.0  0.72323  0.82375  0.87651  1.0000
  P   P470      1.0  0.72228  0.83614  0.94697  1.0000
  P   P471      1.0  0.67596  0.82190  0.94826  1.0000
  P   P472      1.0  0.67609  0.83491  0.87877  1.0000
  P   P473      1.0  0.66544  0.82131  0.87837  1.0000
  P   P474      1.0  0.66465  0.83371  0.94931  1.0000
  P   P475      1.0  0.61829  0.81946  0.95077  1.0000
  P   P476      1.0  0.61796  0.83230  0.88112  1.0000
  P   P477      1.0  0.60739  0.81873  0.88098  1.0000
  P   P478      1.0  0.60572  0.83088  0.95124  1.0000
  P   P479      1.0  0.55931  0.81662  0.95248  1.0000
  P   P480      1.0  0.55917  0.82949  0.88227  1.0000
  P   P481      1.0  0.54866  0.81594  0.88251  1.0000
  P   P482      1.0  0.54651  0.82800  0.95204  1.0000
  P   P483      1.0  0.50015  0.81377  0.95321  1.0000
  P   P484      1.0  0.50072  0.82687  0.88222  1.0000
  P   P485      1.0  0.49020  0.81331  0.88291  1.0000
  P   P486      1.0  0.48840  0.82559  0.95188  1.0000
  P   P487      1.0  0.44213  0.81140  0.95273  1.0000
  P   P488      1.0  0.44352  0.82477  0.88102  1.0000
  P   P489      1.0  0.43294  0.81118  0.88215  1.0000
  P   P490      1.0  0.43216  0.82394  0.95077  1.0000
  P   P491      1.0  0.38597  0.80979  0.95148  1.0000
  P   P492      1.0  0.38769  0.82327  0.87958  1.0000
  P   P493      1.0  0.37705  0.80965  0.88080  1.0000
  P   P494      1.0  0.37711  0.82277  0.94948  1.0000
  P   P495      1.0  0.33097  0.80864  0.95030  1.0000
  P   P496      1.0  0.33275  0.82215  0.87852  1.0000
  P   P497      1.0  0.32207  0.80853  0.87964  1.0000
  P   P498      1.0  0.32266  0.82185  0.94855  1.0000
  P   P499      1.0  0.27655  0.80773  0.94954  1.0000
  P   P500      1.0  0.27830  0.82125  0.87792  1.0000
  P   P501      1.0  0.26759  0.80761  0.87893  1.0000
  P   P502      1.0  0.26849  0.82104  0.94805  1.0000
  P   P503      1.0  0.22239  0.80693  0.94918  1.0000
  P   P504      1.0  0.22411  0.82045  0.87768  1.0000
  P   P505      1.0  0.21338  0.80681  0.87861  1.0000
  P   P506      1.0  0.21446  0.82030  0.94789  1.0000
  P   P507      1.0  0.16837  0.80619  0.94912  1.0000
  P   P508      1.0  0.17006  0.81970  0.87769  1.0000
  P   P509      1.0  0.15932  0.80605  0.87857  1.0000
  P   P510      1.0  0.16050  0.81957  0.94793  1.0000
  P   P511      1.0  0.11442  0.80547  0.94922  1.0000
  P   P512      1.0  0.11609  0.81898  0.87781  1.0000
  P   P513      1.0  0.10534  0.80532  0.87868  1.0000
  P   P514      1.0  0.10657  0.81886  0.94807  1.0000
  P   P515      1.0  0.06049  0.80475  0.94939  1.0000
  P   P516      1.0  0.06216  0.81825  0.87794  1.0000
  P   P517      1.0  0.05139  0.80460  0.87884  1.0000
  P   P518      1.0  0.05264  0.81813  0.94821  1.0000
  P   P519      1.0  0.00656  0.80403  0.94952  1.0000
  P   P520      1.0  0.00822  0.81751  0.87799  1.0000
  P   P521      1.0  0.99745  0.80385  0.87894  1.0000
  P   P522      1.0  0.99867  0.81738  0.94824  1.0000
  P   P523      1.0  0.95258  0.80328  0.94952  1.0000
  P   P524      1.0  0.95424  0.81673  0.87786  1.0000
  P   P525      1.0  0.94346  0.80307  0.87889  1.0000
  P   P526      1.0  0.94461  0.81658  0.94808  1.0000
  P   P527      1.0  0.89851  0.80247  0.94928  1.0000
  P   P528      1.0  0.90013  0.81587  0.87746  1.0000
  P   P529      1.0  0.88935  0.80221  0.87858  1.0000
  P   P530      1.0  0.89035  0.81566  0.94763  1.0000
  P   P531      1.0  0.84424  0.80154  0.94873  1.0000
  P   P532      1.0  0.84576  0.81485  0.87672  1.0000
  P   P533      1.0  0.83497  0.80119  0.87794  1.0000
  P   P534      1.0  0.83568  0.81452  0.94684  1.0000
  P   P535      1.0  0.78954  0.80038  0.94784  1.0000
  P   P536      1.0  0.79082  0.81354  0.87579  1.0000
  P   P537      1.0  0.78004  0.79989  0.87699  1.0000
  P   P538      1.0  0.78021  0.81296  0.94591  1.0000
  P   P539      1.0  0.73401  0.79878  0.94691  1.0000
  P   P540      1.0  0.73482  0.81179  0.87549  1.0000
  P   P541      1.0  0.72405  0.79815  0.87623  1.0000
  P   P542      1.0  0.72336  0.81075  0.94568  1.0000
  P   P543      1.0  0.67708  0.79652  0.94688  1.0000
  P   P544      1.0  0.67755  0.80956  0.87669  1.0000
  P   P545      1.0  0.66682  0.79593  0.87665  1.0000
  P   P546      1.0  0.66593  0.80834  0.94710  1.0000
  P   P547      1.0  0.61961  0.79410  0.94838  1.0000
  P   P548      1.0  0.61978  0.80712  0.87884  1.0000
  P   P549      1.0  0.60913  0.79351  0.87847  1.0000
  P   P550      1.0  0.60837  0.80594  0.94937  1.0000
  P   P551      1.0  0.56201  0.79170  0.95080  1.0000
  P   P552      1.0  0.56174  0.80455  0.88109  1.0000
  P   P553      1.0  0.55118  0.79098  0.88097  1.0000
  P   P554      1.0  0.54953  0.80315  0.95120  1.0000
  P   P555      1.0  0.50313  0.78890  0.95239  1.0000
  P   P556      1.0  0.50303  0.80178  0.88214  1.0000
  P   P557      1.0  0.49254  0.78823  0.88239  1.0000
  P   P558      1.0  0.49041  0.80030  0.95192  1.0000
  P   P559      1.0  0.44404  0.78607  0.95305  1.0000
  P   P560      1.0  0.44462  0.79918  0.88208  1.0000
  P   P561      1.0  0.43412  0.78562  0.88274  1.0000
  P   P562      1.0  0.43230  0.79789  0.95174  1.0000
  P   P563      1.0  0.38603  0.78371  0.95257  1.0000
  P   P564      1.0  0.38740  0.79708  0.88091  1.0000
  P   P565      1.0  0.37683  0.78349  0.88200  1.0000
  P   P566      1.0  0.37601  0.79623  0.95066  1.0000
  P   P567      1.0  0.32983  0.78208  0.95137  1.0000
  P   P568      1.0  0.33154  0.79556  0.87951  1.0000
  P   P569      1.0  0.32091  0.78195  0.88070  1.0000
  P   P570      1.0  0.32093  0.79505  0.94942  1.0000
  P   P571      1.0  0.27480  0.78092  0.95024  1.0000
  P   P572      1.0  0.27656  0.79443  0.87849  1.0000
  P   P573      1.0  0.26589  0.78081  0.87959  1.0000
  P   P574      1.0  0.26645  0.79412  0.94853  1.0000
  P   P575      1.0  0.22034  0.78000  0.94952  1.0000
  P   P576      1.0  0.22208  0.79352  0.87792  1.0000
  P   P577      1.0  0.21137  0.77988  0.87892  1.0000
  P   P578      1.0  0.21226  0.79331  0.94806  1.0000
  P   P579      1.0  0.16616  0.77920  0.94920  1.0000
  P   P580      1.0  0.16787  0.79271  0.87772  1.0000
  P   P581      1.0  0.15714  0.77907  0.87864  1.0000
  P   P582      1.0  0.15822  0.79255  0.94793  1.0000
  P   P583      1.0  0.11213  0.77845  0.94918  1.0000
  P   P584      1.0  0.11380  0.79196  0.87776  1.0000
  P   P585      1.0  0.10305  0.77831  0.87864  1.0000
  P   P586      1.0  0.10425  0.79183  0.94800  1.0000
  P   P587      1.0  0.05816  0.77772  0.94932  1.0000
  P   P588      1.0  0.05982  0.79122  0.87791  1.0000
  P   P589      1.0  0.04905  0.77757  0.87879  1.0000
  P   P590      1.0  0.05031  0.79111  0.94818  1.0000
  P   P591      1.0  0.00422  0.77700  0.94953  1.0000
  P   P592      1.0  0.00587  0.79049  0.87808  1.0000
  P   P593      1.0  0.99509  0.77684  0.87898  1.0000
  P   P594      1.0  0.99636  0.79038  0.94834  1.0000
  P   P595      1.0  0.95028  0.77628  0.94969  1.0000
  P   P596      1.0  0.95192  0.78975  0.87815  1.0000
  P   P597      1.0  0.94114  0.77609  0.87912  1.0000
  P   P598      1.0  0.94238  0.78963  0.94840  1.0000
  P   P599      1.0  0.89629  0.77552  0.94970  1.0000
  P   P600      1.0  0.89793  0.78896  0.87803  1.0000
  P   P601      1.0  0.88713  0.77530  0.87908  1.0000
  P   P602      1.0  0.88831  0.78882  0.94825  1.0000
  P   P603      1.0  0.84221  0.77470  0.94948  1.0000
  P   P604      1.0  0.84381  0.78809  0.87763  1.0000
  P   P605      1.0  0.83301  0.77443  0.87879  1.0000
  P   P606      1.0  0.83402  0.78789  0.94780  1.0000
  P   P607      1.0  0.78791  0.77377  0.94893  1.0000
  P   P608      1.0  0.78940  0.78705  0.87688  1.0000
  P   P609      1.0  0.77861  0.77340  0.87814  1.0000
  P   P610      1.0  0.77932  0.78673  0.94700  1.0000
  P   P611      1.0  0.73318  0.77258  0.94803  1.0000
  P   P612      1.0  0.73443  0.78573  0.87595  1.0000
  P   P613      1.0  0.72363  0.77207  0.87717  1.0000
  P   P614      1.0  0.72379  0.78513  0.94606  1.0000
  P   P615      1.0  0.67758  0.77094  0.94709  1.0000
  P   P616      1.0  0.67838  0.78396  0.87567  1.0000
  P   P617      1.0  0.66760  0.77031  0.87642  1.0000
  P   P618      1.0  0.66691  0.78291  0.94586  1.0000
  P   P619      1.0  0.62063  0.76868  0.94707  1.0000
  P   P620      1.0  0.62114  0.78173  0.87684  1.0000
  P   P621      1.0  0.61040  0.76809  0.87683  1.0000
  P   P622      1.0  0.60958  0.78054  0.94726  1.0000
  P   P623      1.0  0.56326  0.76629  0.94852  1.0000
  P   P624      1.0  0.56347  0.77933  0.87890  1.0000
  P   P625      1.0  0.55282  0.76572  0.87858  1.0000
  P   P626      1.0  0.55210  0.77817  0.94943  1.0000
  P   P627      1.0  0.50574  0.76393  0.95081  1.0000
  P   P628      1.0  0.50553  0.77680  0.88103  1.0000
  P   P629      1.0  0.49498  0.76323  0.88094  1.0000
  P   P630      1.0  0.49337  0.77542  0.95112  1.0000
  P   P631      1.0  0.44698  0.76117  0.95225  1.0000
  P   P632      1.0  0.44692  0.77407  0.88197  1.0000
  P   P633      1.0  0.43645  0.76053  0.88221  1.0000
  P   P634      1.0  0.43433  0.77261  0.95174  1.0000
  P   P635      1.0  0.38797  0.75839  0.95282  1.0000
  P   P636      1.0  0.38854  0.77149  0.88188  1.0000
  P   P637      1.0  0.37807  0.75794  0.88251  1.0000
  P   P638      1.0  0.37622  0.77020  0.95154  1.0000
  P   P639      1.0  0.32995  0.75602  0.95235  1.0000
  P   P640      1.0  0.33130  0.76939  0.88075  1.0000
  P   P641      1.0  0.32075  0.75581  0.88179  1.0000
  P   P642      1.0  0.31989  0.76853  0.95051  1.0000
  P   P643      1.0  0.27370  0.75438  0.95121  1.0000
  P   P644      1.0  0.27539  0.76786  0.87940  1.0000
  P   P645      1.0  0.26478  0.75425  0.88055  1.0000
  P   P646      1.0  0.26476  0.76733  0.94932  1.0000
  P   P647      1.0  0.21863  0.75321  0.95014  1.0000
  P   P648      1.0  0.22037  0.76672  0.87843  1.0000
  P   P649      1.0  0.20971  0.75309  0.87950  1.0000
  P   P650      1.0  0.21025  0.76639  0.94848  1.0000
  P   P651      1.0  0.16414  0.75227  0.94949  1.0000
  P   P652      1.0  0.16586  0.76579  0.87792  1.0000
  P   P653      1.0  0.15516  0.75215  0.87890  1.0000
  P   P654      1.0  0.15604  0.76557  0.94807  1.0000
  P   P655      1.0  0.10994  0.75146  0.94923  1.0000
  P   P656      1.0  0.11162  0.76497  0.87777  1.0000
  P   P657      1.0  0.10089  0.75133  0.87868  1.0000
  P   P658      1.0  0.10197  0.76481  0.94798  1.0000
  P   P659      1.0  0.05588  0.75070  0.94926  1.0000
  P   P660      1.0  0.05754  0.76421  0.87785  1.0000
  P   P661      1.0  0.04679  0.75056  0.87873  1.0000
  P   P662      1.0  0.04799  0.76408  0.94811  1.0000
  P   P663      1.0  0.00190  0.74997  0.94945  1.0000
  P   P664      1.0  0.00354  0.76347  0.87805  1.0000
  P   P665      1.0  0.99277  0.74981  0.87893  1.0000
  P   P666      1.0  0.99403  0.76336  0.94832  1.0000
  P   P667      1.0  0.94795  0.74925  0.94970  1.0000
  P   P668      1.0  0.94957  0.76274  0.87825  1.0000
  P   P669      1.0  0.93879  0.74908  0.87917  1.0000
  P   P670      1.0  0.94008  0.76263  0.94852  1.0000
  P   P671      1.0  0.89399  0.74852  0.94990  1.0000
  P   P672      1.0  0.89561  0.76198  0.87836  1.0000
  P   P673      1.0  0.88482  0.74832  0.87934  1.0000
  P   P674      1.0  0.88609  0.76187  0.94861  1.0000
  P   P675      1.0  0.83999  0.74776  0.94995  1.0000
  P   P676      1.0  0.84160  0.76119  0.87826  1.0000
  P   P677      1.0  0.83080  0.74753  0.87934  1.0000
  P   P678      1.0  0.83199  0.76105  0.94848  1.0000
  P   P679      1.0  0.78589  0.74694  0.94975  1.0000
  P   P680      1.0  0.78746  0.76031  0.87787  1.0000
  P   P681      1.0  0.77665  0.74664  0.87906  1.0000
  P   P682      1.0  0.77768  0.76011  0.94804  1.0000
  P   P683      1.0  0.73156  0.74598  0.94921  1.0000
  P   P684      1.0  0.73303  0.75925  0.87712  1.0000
  P   P685      1.0  0.72221  0.74559  0.87841  1.0000
  P   P686      1.0  0.72294  0.75893  0.94723  1.0000
  P   P687      1.0  0.67678  0.74477  0.94829  1.0000
  P   P688      1.0  0.67801  0.75790  0.87617  1.0000
  P   P689      1.0  0.66720  0.74424  0.87743  1.0000
  P   P690      1.0  0.66734  0.75729  0.94628  1.0000
  P   P691      1.0  0.62111  0.74309  0.94734  1.0000
  P   P692      1.0  0.62192  0.75611  0.87591  1.0000
  P   P693      1.0  0.61113  0.74245  0.87668  1.0000
  P   P694      1.0  0.61045  0.75506  0.94610  1.0000
  P   P695      1.0  0.56416  0.74082  0.94730  1.0000
  P   P696      1.0  0.56471  0.75389  0.87701  1.0000
  P   P697      1.0  0.55397  0.74025  0.87705  1.0000
  P   P698      1.0  0.55322  0.75273  0.94743  1.0000
  P   P699      1.0  0.50690  0.73848  0.94867  1.0000
  P   P700      1.0  0.50716  0.75153  0.87895  1.0000
  P   P701      1.0  0.49652  0.73792  0.87869  1.0000
  P   P702      1.0  0.49583  0.75040  0.94947  1.0000
  P   P703      1.0  0.44948  0.73616  0.95079  1.0000
  P   P704      1.0  0.44934  0.74905  0.88091  1.0000
  P   P705      1.0  0.43880  0.73548  0.88087  1.0000
  P   P706      1.0  0.43723  0.74770  0.95100  1.0000
  P   P707      1.0  0.39084  0.73346  0.95204  1.0000
  P   P708      1.0  0.39082  0.74637  0.88172  1.0000
  P   P709      1.0  0.38038  0.73283  0.88197  1.0000
  P   P710      1.0  0.37828  0.74493  0.95149  1.0000
  P   P711      1.0  0.33193  0.73071  0.95252  1.0000
  P   P712      1.0  0.33249  0.74382  0.88161  1.0000
  P   P713      1.0  0.32205  0.73027  0.88220  1.0000
  P   P714      1.0  0.32017  0.74253  0.95127  1.0000
  P   P715      1.0  0.27391  0.72835  0.95207  1.0000
  P   P716      1.0  0.27522  0.74171  0.88053  1.0000
  P   P717      1.0  0.26470  0.72814  0.88152  1.0000
  P   P718      1.0  0.26378  0.74083  0.95030  1.0000
  P   P719      1.0  0.21760  0.72668  0.95100  1.0000
  P   P720      1.0  0.21926  0.74016  0.87926  1.0000
  P   P721      1.0  0.20866  0.72656  0.88036  1.0000
  P   P722      1.0  0.20861  0.73962  0.94918  1.0000
  P   P723      1.0  0.16247  0.72550  0.95002  1.0000
  P   P724      1.0  0.16419  0.73900  0.87837  1.0000
  P   P725      1.0  0.15354  0.72538  0.87940  1.0000
  P   P726      1.0  0.15406  0.73867  0.94842  1.0000
  P   P727      1.0  0.10795  0.72455  0.94945  1.0000
  P   P728      1.0  0.10964  0.73806  0.87792  1.0000
  P   P729      1.0  0.09894  0.72442  0.87887  1.0000
  P   P730      1.0  0.09982  0.73784  0.94808  1.0000
  P   P731      1.0  0.05372  0.72373  0.94926  1.0000
  P   P732      1.0  0.05537  0.73723  0.87784  1.0000
  P   P733      1.0  0.04465  0.72359  0.87873  1.0000
  P   P734      1.0  0.04573  0.73707  0.94806  1.0000
  P   P735      1.0  0.99964  0.72296  0.94936  1.0000
  P   P736      1.0  0.00127  0.73646  0.87798  1.0000
  P   P737      1.0  0.99052  0.72281  0.87885  1.0000
  P   P738      1.0  0.99173  0.73633  0.94823  1.0000
  P   P739      1.0  0.94564  0.72223  0.94961  1.0000
  P   P740      1.0  0.94725  0.73571  0.87823  1.0000
  P   P741      1.0  0.93648  0.72206  0.87911  1.0000
  P   P742      1.0  0.93776  0.73561  0.94850  1.0000
  P   P743      1.0  0.89167  0.72150  0.94992  1.0000
  P   P744      1.0  0.89327  0.73497  0.87848  1.0000
  P   P745      1.0  0.88248  0.72131  0.87940  1.0000
  P   P746      1.0  0.88379  0.73487  0.94875  1.0000
  P   P747      1.0  0.83770  0.72077  0.95017  1.0000
  P   P748      1.0  0.83929  0.73422  0.87862  1.0000
  P   P749      1.0  0.82849  0.72055  0.87962  1.0000
  P   P750      1.0  0.82978  0.73411  0.94888  1.0000
  P   P751      1.0  0.78368  0.72000  0.95027  1.0000
  P   P752      1.0  0.78526  0.73342  0.87856  1.0000
  P   P753      1.0  0.77444  0.71975  0.87966  1.0000
  P   P754      1.0  0.77566  0.73328  0.94878  1.0000
  P   P755      1.0  0.72956  0.71917  0.95010  1.0000
  P   P756      1.0  0.73110  0.73252  0.87819  1.0000
  P   P757      1.0  0.72027  0.71885  0.87941  1.0000
  P   P758      1.0  0.72132  0.73232  0.94835  1.0000
  P   P759      1.0  0.67519  0.71819  0.94956  1.0000
  P   P760      1.0  0.67663  0.73144  0.87743  1.0000
  P   P761      1.0  0.66580  0.71778  0.87876  1.0000
  P   P762      1.0  0.66652  0.73111  0.94753  1.0000
  P   P763      1.0  0.62036  0.71695  0.94862  1.0000
  P   P764      1.0  0.62157  0.73006  0.87647  1.0000
  P   P765      1.0  0.61074  0.71640  0.87776  1.0000
  P   P766      1.0  0.61085  0.72944  0.94657  1.0000
  P   P767      1.0  0.56462  0.71523  0.94766  1.0000
  P   P768      1.0  0.56544  0.72825  0.87621  1.0000
  P   P769      1.0  0.55463  0.71459  0.87700  1.0000
  P   P770      1.0  0.55397  0.72720  0.94640  1.0000
  P   P771      1.0  0.50767  0.71296  0.94758  1.0000
  P   P772      1.0  0.50828  0.72604  0.87722  1.0000
  P   P773      1.0  0.49753  0.71240  0.87731  1.0000
  P   P774      1.0  0.49685  0.72491  0.94763  1.0000
  P   P775      1.0  0.45053  0.71066  0.94882  1.0000
  P   P776      1.0  0.45086  0.72373  0.87899  1.0000
  P   P777      1.0  0.44022  0.71012  0.87880  1.0000
  P   P778      1.0  0.43957  0.72263  0.94948  1.0000
  P   P779      1.0  0.39322  0.70839  0.95072  1.0000
  P   P780      1.0  0.39316  0.72130  0.88075  1.0000
  P   P781      1.0  0.38264  0.70774  0.88075  1.0000
  P   P782      1.0  0.38111  0.71999  0.95082  1.0000
  P   P783      1.0  0.33473  0.70575  0.95177  1.0000
  P   P784      1.0  0.33476  0.71867  0.88140  1.0000
  P   P785      1.0  0.32434  0.70514  0.88166  1.0000
  P   P786      1.0  0.32227  0.71727  0.95117  1.0000
  P   P787      1.0  0.27593  0.70305  0.95213  1.0000
  P   P788      1.0  0.27647  0.71615  0.88126  1.0000
  P   P789      1.0  0.26606  0.70262  0.88181  1.0000
  P   P790      1.0  0.26416  0.71487  0.95093  1.0000
  P   P791      1.0  0.21790  0.70069  0.95172  1.0000
  P   P792      1.0  0.21917  0.71404  0.88026  1.0000
  P   P793      1.0  0.20867  0.70048  0.88118  1.0000
  P   P794      1.0  0.20770  0.71315  0.95003  1.0000
  P   P795      1.0  0.16152  0.69900  0.95075  1.0000
  P   P796      1.0  0.16314  0.71247  0.87908  1.0000
  P   P797      1.0  0.15256  0.69888  0.88013  1.0000
  P   P798      1.0  0.15247  0.71192  0.94902  1.0000
  P   P799      1.0  0.10633  0.69779  0.94988  1.0000
  P   P800      1.0  0.10802  0.71129  0.87828  1.0000
  P   P801      1.0  0.09737  0.69767  0.87927  1.0000
  P   P802      1.0  0.09788  0.71094  0.94835  1.0000
  P   P803      1.0  0.05177  0.69683  0.94940  1.0000
  P   P804      1.0  0.05343  0.71033  0.87793  1.0000
  P   P805      1.0  0.04273  0.69670  0.87885  1.0000
  P   P806      1.0  0.04361  0.71010  0.94809  1.0000
  P   P807      1.0  0.99751  0.69599  0.94931  1.0000
  P   P808      1.0  0.99913  0.70949  0.87792  1.0000
  P   P809      1.0  0.98840  0.69585  0.87880  1.0000
  P   P810      1.0  0.98950  0.70933  0.94815  1.0000
  P   P811      1.0  0.94340  0.69522  0.94948  1.0000
  P   P812      1.0  0.94500  0.70871  0.87813  1.0000
  P   P813      1.0  0.93425  0.69506  0.87899  1.0000
  P   P814      1.0  0.93547  0.70859  0.94840  1.0000
  P   P815      1.0  0.88938  0.69448  0.94981  1.0000
  P   P816      1.0  0.89095  0.70796  0.87844  1.0000
  P   P817      1.0  0.88018  0.69430  0.87932  1.0000
  P   P818      1.0  0.88148  0.70785  0.94873  1.0000
  P   P819      1.0  0.83539  0.69375  0.95018  1.0000
  P   P820      1.0  0.83696  0.70721  0.87875  1.0000
  P   P821      1.0  0.82616  0.69355  0.87968  1.0000
  P   P822      1.0  0.82749  0.70711  0.94903  1.0000
  P   P823      1.0  0.78140  0.69301  0.95050  1.0000
  P   P824      1.0  0.78296  0.70645  0.87895  1.0000
  P   P825      1.0  0.77215  0.69278  0.87996  1.0000
  P   P826      1.0  0.77346  0.70634  0.94921  1.0000
  P   P827      1.0  0.72736  0.69224  0.95065  1.0000
  P   P828      1.0  0.72891  0.70563  0.87894  1.0000
  P   P829      1.0  0.71808  0.69196  0.88006  1.0000
  P   P830      1.0  0.71931  0.70550  0.94916  1.0000
  P   P831      1.0  0.67321  0.69139  0.95052  1.0000
  P   P832      1.0  0.67471  0.70472  0.87859  1.0000
  P   P833      1.0  0.66387  0.69105  0.87984  1.0000
  P   P834      1.0  0.66493  0.70453  0.94875  1.0000
  P   P835      1.0  0.61880  0.69039  0.95000  1.0000
  P   P836      1.0  0.62021  0.70362  0.87782  1.0000
  P   P837      1.0  0.60936  0.68995  0.87919  1.0000
  P   P838      1.0  0.61008  0.70328  0.94792  1.0000
  P   P839      1.0  0.56391  0.68911  0.94904  1.0000
  P   P840      1.0  0.56509  0.70221  0.87685  1.0000
  P   P841      1.0  0.55425  0.68854  0.87818  1.0000
  P   P842      1.0  0.55434  0.70156  0.94695  1.0000
  P   P843      1.0  0.50809  0.68734  0.94806  1.0000
  P   P844      1.0  0.50894  0.70037  0.87658  1.0000
  P   P845      1.0  0.49811  0.68670  0.87740  1.0000
  P   P846      1.0  0.49747  0.69933  0.94676  1.0000
  P   P847      1.0  0.45117  0.68508  0.94791  1.0000
  P   P848      1.0  0.45185  0.69818  0.87744  1.0000
  P   P849      1.0  0.44109  0.68454  0.87761  1.0000
  P   P850      1.0  0.44048  0.69709  0.94785  1.0000
  P   P851      1.0  0.39415  0.68284  0.94898  1.0000
  P   P852      1.0  0.39456  0.69592  0.87901  1.0000
  P   P853      1.0  0.38393  0.68231  0.87890  1.0000
  P   P854      1.0  0.38332  0.69486  0.94947  1.0000
  P   P855      1.0  0.33697  0.68062  0.95061  1.0000
  P   P856      1.0  0.33699  0.69355  0.88052  1.0000
  P   P857      1.0  0.32650  0.67999  0.88057  1.0000
  P   P858      1.0  0.32502  0.69229  0.95057  1.0000
  P   P859      1.0  0.27865  0.67805  0.95141  1.0000
  P   P860      1.0  0.27872  0.69099  0.88100  1.0000
  P   P861      1.0  0.26833  0.67746  0.88126  1.0000
  P   P862      1.0  0.26631  0.68962  0.95077  1.0000
  P   P863      1.0  0.21997  0.67541  0.95166  1.0000
  P   P864      1.0  0.22048  0.68850  0.88083  1.0000
  P   P865      1.0  0.21011  0.67498  0.88133  1.0000
  P   P866      1.0  0.20820  0.68722  0.95051  1.0000
  P   P867      1.0  0.16194  0.67305  0.95129  1.0000
  P   P868      1.0  0.16314  0.68638  0.87993  1.0000
  P   P869      1.0  0.15268  0.67283  0.88078  1.0000
  P   P870      1.0  0.15166  0.68547  0.94972  1.0000
  P   P871      1.0  0.10548  0.67133  0.95045  1.0000
  P   P872      1.0  0.10704  0.68479  0.87887  1.0000
  P   P873      1.0  0.09648  0.67120  0.87985  1.0000
  P   P874      1.0  0.09636  0.68422  0.94882  1.0000
  P   P875      1.0  0.05022  0.67009  0.94971  1.0000
  P   P876      1.0  0.05186  0.68358  0.87819  1.0000
  P   P877      1.0  0.04123  0.66997  0.87913  1.0000
  P   P878      1.0  0.04171  0.68323  0.94827  1.0000
  P   P879      1.0  0.99560  0.66911  0.94936  1.0000
  P   P880      1.0  0.99721  0.68260  0.87794  1.0000
  P   P881      1.0  0.98654  0.66897  0.87883  1.0000
  P   P882      1.0  0.98741  0.68237  0.94812  1.0000
  P   P883      1.0  0.94131  0.66826  0.94937  1.0000
  P   P884      1.0  0.94288  0.68174  0.87803  1.0000
  P   P885      1.0  0.93217  0.66810  0.87888  1.0000
  P   P886      1.0  0.93327  0.68159  0.94827  1.0000
  P   P887      1.0  0.88718  0.66748  0.94964  1.0000
  P   P888      1.0  0.88872  0.68096  0.87832  1.0000
  P   P889      1.0  0.87798  0.66731  0.87917  1.0000
  P   P890      1.0  0.87922  0.68084  0.94860  1.0000
  P   P891      1.0  0.83313  0.66673  0.95005  1.0000
  P   P892      1.0  0.83466  0.68020  0.87871  1.0000
  P   P893      1.0  0.82389  0.66654  0.87958  1.0000
  P   P894      1.0  0.82521  0.68010  0.94900  1.0000
  P   P895      1.0  0.77912  0.66600  0.95050  1.0000
  P   P896      1.0  0.78064  0.67944  0.87909  1.0000
  P   P897      1.0  0.76985  0.66578  0.88002  1.0000
  P   P898      1.0  0.77119  0.67936  0.94937  1.0000
  P   P899      1.0  0.72510  0.66525  0.95088  1.0000
  P   P900      1.0  0.72662  0.67867  0.87935  1.0000
  P   P901      1.0  0.71580  0.66501  0.88037  1.0000
  P   P902      1.0  0.71713  0.67858  0.94961  1.0000
  P   P903      1.0  0.67104  0.66447  0.95110  1.0000
  P   P904      1.0  0.67254  0.67785  0.87939  1.0000
  P   P905      1.0  0.66170  0.66418  0.88052  1.0000
  P   P906      1.0  0.66295  0.67772  0.94961  1.0000
  P   P907      1.0  0.61684  0.66360  0.95102  1.0000
  P   P908      1.0  0.61831  0.67691  0.87906  1.0000
  P   P909      1.0  0.60746  0.66324  0.88034  1.0000
  P   P910      1.0  0.60852  0.67672  0.94922  1.0000
  P   P911      1.0  0.56239  0.66258  0.95051  1.0000
  P   P912      1.0  0.56376  0.67578  0.87829  1.0000
  P   P913      1.0  0.55290  0.66211  0.87970  1.0000
  P   P914      1.0  0.55361  0.67543  0.94840  1.0000
  P   P915      1.0  0.50742  0.66125  0.94955  1.0000
  P   P916      1.0  0.50859  0.67434  0.87732  1.0000
  P   P917      1.0  0.49773  0.66066  0.87868  1.0000
  P   P918      1.0  0.49779  0.67367  0.94741  1.0000
  P   P919      1.0  0.45152  0.65943  0.94853  1.0000
  P   P920      1.0  0.45241  0.67248  0.87701  1.0000
  P   P921      1.0  0.44157  0.65880  0.87787  1.0000
  P   P922      1.0  0.44096  0.67145  0.94719  1.0000
  P   P923      1.0  0.39465  0.65719  0.94829  1.0000
  P   P924      1.0  0.39540  0.67031  0.87769  1.0000
  P   P925      1.0  0.38464  0.65666  0.87794  1.0000
  P   P926      1.0  0.38410  0.66927  0.94808  1.0000
  P   P927      1.0  0.33778  0.65501  0.94913  1.0000
  P   P928      1.0  0.33826  0.66810  0.87900  1.0000
  P   P929      1.0  0.32764  0.65450  0.87899  1.0000
  P   P930      1.0  0.32708  0.66709  0.94942  1.0000
  P   P931      1.0  0.28074  0.65285  0.95046  1.0000
  P   P932      1.0  0.28085  0.66580  0.88023  1.0000
  P   P933      1.0  0.27037  0.65225  0.88034  1.0000
  P   P934      1.0  0.26897  0.66460  0.95025  1.0000
  P   P935      1.0  0.22262  0.65037  0.95098  1.0000
  P   P936      1.0  0.22272  0.66331  0.88051  1.0000
  P   P937      1.0  0.21236  0.64979  0.88078  1.0000
  P   P938      1.0  0.21040  0.66199  0.95029  1.0000
  P   P939      1.0  0.16408  0.64779  0.95109  1.0000
  P   P940      1.0  0.16454  0.66086  0.88032  1.0000
  P   P941      1.0  0.15421  0.64735  0.88076  1.0000
  P   P942      1.0  0.15230  0.65960  0.95001  1.0000
  P   P943      1.0  0.10605  0.64543  0.95079  1.0000
  P   P944      1.0  0.10715  0.65874  0.87954  1.0000
  P   P945      1.0  0.09674  0.64520  0.88030  1.0000
  P   P946      1.0  0.09567  0.65782  0.94934  1.0000
  P   P947      1.0  0.04948  0.64367  0.95011  1.0000
  P   P948      1.0  0.05097  0.65711  0.87863  1.0000
  P   P949      1.0  0.04045  0.64353  0.87954  1.0000
  P   P950      1.0  0.04028  0.65653  0.94861  1.0000
  P   P951      1.0  0.99414  0.64240  0.94954  1.0000
  P   P952      1.0  0.99571  0.65587  0.87809  1.0000
  P   P953      1.0  0.98511  0.64227  0.87898  1.0000
  P   P954      1.0  0.98558  0.65552  0.94819  1.0000
  P   P955      1.0  0.93946  0.64139  0.94933  1.0000
  P   P956      1.0  0.94101  0.65487  0.87796  1.0000
  P   P957      1.0  0.93036  0.64125  0.87881  1.0000
  P   P958      1.0  0.93123  0.65465  0.94816  1.0000
  P   P959      1.0  0.88513  0.64053  0.94946  1.0000
  P   P960      1.0  0.88664  0.65400  0.87816  1.0000
  P   P961      1.0  0.87595  0.64036  0.87899  1.0000
  P   P962      1.0  0.87706  0.65386  0.94841  1.0000
  P   P963      1.0  0.83096  0.63974  0.94983  1.0000
  P   P964      1.0  0.83245  0.65320  0.87855  1.0000
  P   P965      1.0  0.82173  0.63956  0.87938  1.0000
  P   P966      1.0  0.82298  0.65310  0.94883  1.0000
  P   P967      1.0  0.77689  0.63899  0.95033  1.0000
  P   P968      1.0  0.77836  0.65243  0.87903  1.0000
  P   P969      1.0  0.76762  0.63878  0.87988  1.0000
  P   P970      1.0  0.76894  0.65235  0.94932  1.0000
  P   P971      1.0  0.72285  0.63824  0.95086  1.0000
  P   P972      1.0  0.72432  0.65167  0.87948  1.0000
  P   P973      1.0  0.71354  0.63802  0.88040  1.0000
  P   P974      1.0  0.71490  0.65160  0.94977  1.0000
  P   P975      1.0  0.66880  0.63749  0.95132  1.0000
  P   P976      1.0  0.67027  0.65089  0.87981  1.0000
  P   P977      1.0  0.65947  0.63723  0.88082  1.0000
  P   P978      1.0  0.66080  0.65081  0.95008  1.0000
  P   P979      1.0  0.61470  0.63669  0.95160  1.0000
  P   P980      1.0  0.61615  0.65005  0.87990  1.0000
  P   P981      1.0  0.60533  0.63638  0.88104  1.0000
  P   P982      1.0  0.60658  0.64993  0.95012  1.0000
  P   P983      1.0  0.56046  0.63580  0.95158  1.0000
  P   P984      1.0  0.56189  0.64910  0.87961  1.0000
  P   P985      1.0  0.55104  0.63542  0.88090  1.0000
  P   P986      1.0  0.55209  0.64890  0.94977  1.0000
  P   P987      1.0  0.50594  0.63474  0.95109  1.0000
  P   P988      1.0  0.50729  0.64793  0.87885  1.0000
  P   P989      1.0  0.49643  0.63425  0.88028  1.0000
  P   P990      1.0  0.49710  0.64757  0.94895  1.0000
  P   P991      1.0  0.45089  0.63337  0.95012  1.0000
  P   P992      1.0  0.45206  0.64644  0.87787  1.0000
  P   P993      1.0  0.44119  0.63276  0.87925  1.0000
  P   P994      1.0  0.44120  0.64576  0.94795  1.0000
  P   P995      1.0  0.39492  0.63150  0.94907  1.0000
  P   P996      1.0  0.39586  0.64457  0.87751  1.0000
  P   P997      1.0  0.38501  0.63089  0.87840  1.0000
  P   P998      1.0  0.38444  0.64356  0.94767  1.0000
  P   P999      1.0  0.33812  0.62929  0.94870  1.0000
  P   P1000     1.0  0.33895  0.64243  0.87796  1.0000
  P   P1001     1.0  0.32820  0.62878  0.87831  1.0000
  P   P1002     1.0  0.32772  0.64143  0.94832  1.0000
  P   P1003     1.0  0.28140  0.62717  0.94929  1.0000
  P   P1004     1.0  0.28198  0.64028  0.87897  1.0000
  P   P1005     1.0  0.27137  0.62668  0.87907  1.0000
  P   P1006     1.0  0.27086  0.63933  0.94935  1.0000
  P   P1007     1.0  0.22453  0.62509  0.95026  1.0000
  P   P1008     1.0  0.22473  0.63805  0.87988  1.0000
  P   P1009     1.0  0.21428  0.62450  0.88007  1.0000
  P   P1010     1.0  0.21297  0.63692  0.94988  1.0000
  P   P1011     1.0  0.16663  0.62270  0.95049  1.0000
  P   P1012     1.0  0.16675  0.63563  0.87995  1.0000
  P   P1013     1.0  0.15643  0.62213  0.88024  1.0000
  P   P1014     1.0  0.15457  0.63438  0.94972  1.0000
  P   P1015     1.0  0.10825  0.62018  0.95045  1.0000
  P   P1016     1.0  0.10863  0.63322  0.87972  1.0000
  P   P1017     1.0  0.09836  0.61973  0.88011  1.0000
  P   P1018     1.0  0.09649  0.63201  0.94944  1.0000
  P   P1019     1.0  0.05024  0.61784  0.95023  1.0000
  P   P1020     1.0  0.05120  0.63110  0.87910  1.0000
  P   P1021     1.0  0.04086  0.61758  0.87976  1.0000
  P   P1022     1.0  0.03975  0.63018  0.94893  1.0000
  P   P1023     1.0  0.99356  0.61603  0.94975  1.0000
  P   P1024     1.0  0.99492  0.62944  0.87838  1.0000
  P   P1025     1.0  0.98446  0.61588  0.87920  1.0000
  P   P1026     1.0  0.98426  0.62886  0.94837  1.0000
  P   P1027     1.0  0.93811  0.61472  0.94936  1.0000
  P   P1028     1.0  0.93958  0.62816  0.87799  1.0000
  P   P1029     1.0  0.92904  0.61458  0.87883  1.0000
  P   P1030     1.0  0.92949  0.62782  0.94812  1.0000
  P   P1031     1.0  0.88336  0.61368  0.94931  1.0000
  P   P1032     1.0  0.88483  0.62713  0.87802  1.0000
  P   P1033     1.0  0.87423  0.61353  0.87882  1.0000
  P   P1034     1.0  0.87509  0.62693  0.94823  1.0000
  P   P1035     1.0  0.82898  0.61280  0.94957  1.0000
  P   P1036     1.0  0.83042  0.62625  0.87834  1.0000
  P   P1037     1.0  0.81978  0.61263  0.87912  1.0000
  P   P1038     1.0  0.82088  0.62612  0.94859  1.0000
  P   P1039     1.0  0.77479  0.61200  0.95005  1.0000
  P   P1040     1.0  0.77620  0.62544  0.87883  1.0000
  P   P1041     1.0  0.76553  0.61181  0.87962  1.0000
  P   P1042     1.0  0.76677  0.62536  0.94911  1.0000
  P   P1043     1.0  0.72068  0.61124  0.95065  1.0000
  P   P1044     1.0  0.72208  0.62467  0.87939  1.0000
  P   P1045     1.0  0.71138  0.61103  0.88022  1.0000
  P   P1046     1.0  0.71270  0.62461  0.94968  1.0000
  P   P1047     1.0  0.66660  0.61049  0.95126  1.0000
  P   P1048     1.0  0.66800  0.62390  0.87992  1.0000
  P   P1049     1.0  0.65727  0.61025  0.88081  1.0000
  P   P1050     1.0  0.65862  0.62384  0.95020  1.0000
  P   P1051     1.0  0.61252  0.60972  0.95179  1.0000
  P   P1052     1.0  0.61392  0.62311  0.88033  1.0000
  P   P1053     1.0  0.60316  0.60945  0.88131  1.0000
  P   P1054     1.0  0.60448  0.62303  0.95059  1.0000
  P   P1055     1.0  0.55837  0.60891  0.95215  1.0000
  P   P1056     1.0  0.55977  0.62225  0.88047  1.0000
  P   P1057     1.0  0.54898  0.60859  0.88158  1.0000
  P   P1058     1.0  0.55020  0.62213  0.95069  1.0000
  P   P1059     1.0  0.50407  0.60799  0.95217  1.0000
  P   P1060     1.0  0.50546  0.62126  0.88022  1.0000
  P   P1061     1.0  0.49464  0.60760  0.88149  1.0000
  P   P1062     1.0  0.49564  0.62106  0.95037  1.0000
  P   P1063     1.0  0.44947  0.60688  0.95171  1.0000
  P   P1064     1.0  0.45080  0.62006  0.87946  1.0000
  P   P1065     1.0  0.43996  0.60639  0.88088  1.0000
  P   P1066     1.0  0.44056  0.61968  0.94955  1.0000
  P   P1067     1.0  0.39433  0.60545  0.95072  1.0000
  P   P1068     1.0  0.39551  0.61853  0.87848  1.0000
  P   P1069     1.0  0.38464  0.60485  0.87985  1.0000
  P   P1070     1.0  0.38460  0.61783  0.94856  1.0000
  P   P1071     1.0  0.33830  0.60355  0.94965  1.0000
  P   P1072     1.0  0.33930  0.61664  0.87805  1.0000
  P   P1073     1.0  0.32846  0.60296  0.87896  1.0000
  P   P1074     1.0  0.32792  0.61566  0.94820  1.0000
  P   P1075     1.0  0.28160  0.60138  0.94914  1.0000
  P   P1076     1.0  0.28250  0.61454  0.87825  1.0000
  P   P1077     1.0  0.27177  0.60089  0.87870  1.0000
  P   P1078     1.0  0.27136  0.61360  0.94858  1.0000
  P   P1079     1.0  0.22503  0.59933  0.94947  1.0000
  P   P1080     1.0  0.22570  0.61245  0.87894  1.0000
  P   P1081     1.0  0.21511  0.59885  0.87916  1.0000
  P   P1082     1.0  0.21469  0.61157  0.94927  1.0000
  P   P1083     1.0  0.16836  0.59733  0.95006  1.0000
  P   P1084     1.0  0.16863  0.61030  0.87949  1.0000
  P   P1085     1.0  0.15821  0.59676  0.87978  1.0000
  P   P1086     1.0  0.15705  0.60927  0.94947  1.0000
  P   P1087     1.0  0.11072  0.59505  0.94997  1.0000
  P   P1088     1.0  0.11081  0.60796  0.87933  1.0000
  P   P1089     1.0  0.10055  0.59447  0.87967  1.0000
  P   P1090     1.0  0.09882  0.60680  0.94912  1.0000
  P   P1091     1.0  0.05252  0.59261  0.94978  1.0000
  P   P1092     1.0  0.05277  0.60560  0.87906  1.0000
  P   P1093     1.0  0.04258  0.59212  0.87943  1.0000
  P   P1094     1.0  0.04079  0.60445  0.94882  1.0000
  P   P1095     1.0  0.99454  0.59028  0.94965  1.0000
  P   P1096     1.0  0.99531  0.60347  0.87862  1.0000
  P   P1097     1.0  0.98507  0.58998  0.87919  1.0000
  P   P1098     1.0  0.98394  0.60258  0.94849  1.0000
  P   P1099     1.0  0.93774  0.58842  0.94938  1.0000
  P   P1100     1.0  0.93893  0.60176  0.87812  1.0000
  P   P1101     1.0  0.92858  0.58824  0.87886  1.0000
  P   P1102     1.0  0.92832  0.60120  0.94814  1.0000
  P   P1103     1.0  0.88217  0.58705  0.94920  1.0000
  P   P1104     1.0  0.88349  0.60045  0.87792  1.0000
  P   P1105     1.0  0.87306  0.58689  0.87868  1.0000
  P   P1106     1.0  0.87347  0.60013  0.94807  1.0000
  P   P1107     1.0  0.82734  0.58598  0.94932  1.0000
  P   P1108     1.0  0.82868  0.59939  0.87810  1.0000
  P   P1109     1.0  0.81819  0.58581  0.87883  1.0000
  P   P1110     1.0  0.81902  0.59922  0.94832  1.0000
  P   P1111     1.0  0.77291  0.58507  0.94971  1.0000
  P   P1112     1.0  0.77423  0.59849  0.87854  1.0000
  P   P1113     1.0  0.76370  0.58490  0.87926  1.0000
  P   P1114     1.0  0.76477  0.59840  0.94880  1.0000
  P   P1115     1.0  0.71867  0.58426  0.95030  1.0000
  P   P1116     1.0  0.71998  0.59767  0.87914  1.0000
  P   P1117     1.0  0.70942  0.58407  0.87987  1.0000
  P   P1118     1.0  0.71062  0.59763  0.94942  1.0000
  P   P1119     1.0  0.66452  0.58349  0.95097  1.0000
  P   P1120     1.0  0.66583  0.59689  0.87979  1.0000
  P   P1121     1.0  0.65524  0.58328  0.88055  1.0000
  P   P1122     1.0  0.65650  0.59686  0.95007  1.0000
  P   P1123     1.0  0.61040  0.58273  0.95166  1.0000
  P   P1124     1.0  0.61172  0.59612  0.88040  1.0000
  P   P1125     1.0  0.60110  0.58250  0.88122  1.0000
  P   P1126     1.0  0.60237  0.59609  0.95067  1.0000
  P   P1127     1.0  0.55627  0.58195  0.95226  1.0000
  P   P1128     1.0  0.55760  0.59532  0.88087  1.0000
  P   P1129     1.0  0.54694  0.58169  0.88177  1.0000
  P   P1130     1.0  0.54818  0.59526  0.95112  1.0000
  P   P1131     1.0  0.50206  0.58111  0.95267  1.0000
  P   P1132     1.0  0.50341  0.59444  0.88106  1.0000
  P   P1133     1.0  0.49270  0.58080  0.88210  1.0000
  P   P1134     1.0  0.49383  0.59433  0.95127  1.0000
  P   P1135     1.0  0.44768  0.58016  0.95274  1.0000
  P   P1136     1.0  0.44904  0.59342  0.88083  1.0000
  P   P1137     1.0  0.43830  0.57977  0.88203  1.0000
  P   P1138     1.0  0.43919  0.59321  0.95098  1.0000
  P   P1139     1.0  0.39300  0.57900  0.95228  1.0000
  P   P1140     1.0  0.39431  0.59217  0.88008  1.0000
  P   P1141     1.0  0.38354  0.57851  0.88142  1.0000
  P   P1142     1.0  0.38402  0.59176  0.95016  1.0000
  P   P1143     1.0  0.33776  0.57750  0.95129  1.0000
  P   P1144     1.0  0.33895  0.59060  0.87912  1.0000
  P   P1145     1.0  0.32814  0.57693  0.88040  1.0000
  P   P1146     1.0  0.32801  0.58988  0.94919  1.0000
  P   P1147     1.0  0.28169  0.57558  0.95019  1.0000
  P   P1148     1.0  0.28274  0.58869  0.87861  1.0000
  P   P1149     1.0  0.27195  0.57503  0.87950  1.0000
  P   P1150     1.0  0.27144  0.58776  0.94875  1.0000
  P   P1151     1.0  0.22511  0.57346  0.94958  1.0000
  P   P1152     1.0  0.22606  0.58663  0.87857  1.0000
  P   P1153     1.0  0.21538  0.57300  0.87909  1.0000
  P   P1154     1.0  0.21504  0.58576  0.94887  1.0000
  P   P1155     1.0  0.16871  0.57148  0.94966  1.0000
  P   P1156     1.0  0.16944  0.58461  0.87892  1.0000
  P   P1157     1.0  0.15891  0.57102  0.87928  1.0000
  P   P1158     1.0  0.15857  0.58383  0.94920  1.0000
  P   P1159     1.0  0.11226  0.56958  0.94987  1.0000
  P   P1160     1.0  0.11256  0.58254  0.87911  1.0000
  P   P1161     1.0  0.10220  0.56902  0.87952  1.0000
  P   P1162     1.0  0.10122  0.58164  0.94908  1.0000
  P   P1163     1.0  0.05491  0.56743  0.94950  1.0000
  P   P1164     1.0  0.05492  0.58029  0.87873  1.0000
  P   P1165     1.0  0.04475  0.56682  0.87915  1.0000
  P   P1166     1.0  0.04319  0.57926  0.94854  1.0000
  P   P1167     1.0  0.99691  0.56506  0.94915  1.0000
  P   P1168     1.0  0.99698  0.57797  0.87839  1.0000
  P   P1169     1.0  0.98691  0.56453  0.87877  1.0000
  P   P1170     1.0  0.98524  0.57693  0.94820  1.0000
  P   P1171     1.0  0.93900  0.56275  0.94908  1.0000
  P   P1172     1.0  0.93949  0.57583  0.87814  1.0000
  P   P1173     1.0  0.92943  0.56239  0.87862  1.0000
  P   P1174     1.0  0.92829  0.57502  0.94805  1.0000
  P   P1175     1.0  0.88209  0.56083  0.94904  1.0000
  P   P1176     1.0  0.88302  0.57409  0.87788  1.0000
  P   P1177     1.0  0.87288  0.56062  0.87850  1.0000
  P   P1178     1.0  0.87254  0.57358  0.94793  1.0000
  P   P1179     1.0  0.82638  0.55939  0.94906  1.0000
  P   P1180     1.0  0.82750  0.57272  0.87788  1.0000
  P   P1181     1.0  0.81728  0.55922  0.87853  1.0000
  P   P1182     1.0  0.81759  0.57246  0.94804  1.0000
  P   P1183     1.0  0.77145  0.55827  0.94933  1.0000
  P   P1184     1.0  0.77262  0.57163  0.87821  1.0000
  P   P1185     1.0  0.76235  0.55812  0.87883  1.0000
  P   P1186     1.0  0.76308  0.57153  0.94843  1.0000
  P   P1187     1.0  0.71695  0.55734  0.94983  1.0000
  P   P1188     1.0  0.71813  0.57071  0.87878  1.0000
  P   P1189     1.0  0.70783  0.55719  0.87937  1.0000
  P   P1190     1.0  0.70878  0.57070  0.94902  1.0000
  P   P1191     1.0  0.66267  0.55651  0.95050  1.0000
  P   P1192     1.0  0.66385  0.56989  0.87946  1.0000
  P   P1193     1.0  0.65352  0.55635  0.88005  1.0000
  P   P1194     1.0  0.65459  0.56991  0.94972  1.0000
  P   P1195     1.0  0.60847  0.55573  0.95123  1.0000
  P   P1196     1.0  0.60967  0.56911  0.88018  1.0000
  P   P1197     1.0  0.59931  0.55556  0.88078  1.0000
  P   P1198     1.0  0.60042  0.56913  0.95044  1.0000
  P   P1199     1.0  0.55430  0.55496  0.95196  1.0000
  P   P1200     1.0  0.55552  0.56833  0.88085  1.0000
  P   P1201     1.0  0.54513  0.55477  0.88149  1.0000
  P   P1202     1.0  0.54623  0.56834  0.95110  1.0000
  P   P1203     1.0  0.50011  0.55416  0.95260  1.0000
  P   P1204     1.0  0.50136  0.56751  0.88137  1.0000
  P   P1205     1.0  0.49092  0.55394  0.88208  1.0000
  P   P1206     1.0  0.49196  0.56749  0.95159  1.0000
  P   P1207     1.0  0.44582  0.55329  0.95304  1.0000
  P   P1208     1.0  0.44711  0.56661  0.88160  1.0000
  P   P1209     1.0  0.43662  0.55303  0.88242  1.0000
  P   P1210     1.0  0.43753  0.56651  0.95177  1.0000
  P   P1211     1.0  0.39135  0.55230  0.95311  1.0000
  P   P1212     1.0  0.39267  0.56555  0.88136  1.0000
  P   P1213     1.0  0.38213  0.55196  0.88234  1.0000
  P   P1214     1.0  0.38279  0.56534  0.95148  1.0000
  P   P1215     1.0  0.33656  0.55108  0.95263  1.0000
  P   P1216     1.0  0.33787  0.56425  0.88060  1.0000
  P   P1217     1.0  0.32726  0.55064  0.88173  1.0000
  P   P1218     1.0  0.32753  0.56383  0.95067  1.0000
  P   P1219     1.0  0.28123  0.54952  0.95165  1.0000
  P   P1220     1.0  0.28243  0.56264  0.87970  1.0000
  P   P1221     1.0  0.27176  0.54901  0.88076  1.0000
  P   P1222     1.0  0.27149  0.56193  0.94976  1.0000
  P   P1223     1.0  0.22515  0.54759  0.95059  1.0000
  P   P1224     1.0  0.22622  0.56073  0.87914  1.0000
  P   P1225     1.0  0.21557  0.54710  0.87989  1.0000
  P   P1226     1.0  0.21504  0.55986  0.94928  1.0000
  P   P1227     1.0  0.16870  0.54553  0.94996  1.0000
  P   P1228     1.0  0.16967  0.55870  0.87891  1.0000
  P   P1229     1.0  0.15912  0.54511  0.87943  1.0000
  P   P1230     1.0  0.15881  0.55794  0.94917  1.0000
  P   P1231     1.0  0.11247  0.54363  0.94987  1.0000
  P   P1232     1.0  0.11322  0.55675  0.87897  1.0000
  P   P1233     1.0  0.10280  0.54320  0.87941  1.0000
  P   P1234     1.0  0.10257  0.55610  0.94919  1.0000
  P   P1235     1.0  0.05627  0.54185  0.94976  1.0000
  P   P1236     1.0  0.05653  0.55477  0.87883  1.0000
  P   P1237     1.0  0.04629  0.54128  0.87933  1.0000
  P   P1238     1.0  0.04552  0.55404  0.94879  1.0000
  P   P1239     1.0  0.99923  0.53982  0.94916  1.0000
  P   P1240     1.0  0.99910  0.55260  0.87825  1.0000
  P   P1241     1.0  0.98907  0.53917  0.87876  1.0000
  P   P1242     1.0  0.98773  0.55175  0.94808  1.0000
  P   P1243     1.0  0.94146  0.53754  0.94865  1.0000
  P   P1244     1.0  0.94128  0.55033  0.87781  1.0000
  P   P1245     1.0  0.93142  0.53694  0.87821  1.0000
  P   P1246     1.0  0.92991  0.54946  0.94767  1.0000
  P   P1247     1.0  0.88367  0.53525  0.94860  1.0000
  P   P1248     1.0  0.88382  0.54819  0.87771  1.0000
  P   P1249     1.0  0.87404  0.53483  0.87808  1.0000
  P   P1250     1.0  0.87289  0.54750  0.94767  1.0000
  P   P1251     1.0  0.82669  0.53327  0.94869  1.0000
  P   P1252     1.0  0.82727  0.54639  0.87767  1.0000
  P   P1253     1.0  0.81749  0.53302  0.87810  1.0000
  P   P1254     1.0  0.81701  0.54600  0.94774  1.0000
  P   P1255     1.0  0.77083  0.53174  0.94885  1.0000
  P   P1256     1.0  0.77167  0.54498  0.87786  1.0000
  P   P1257     1.0  0.76184  0.53159  0.87824  1.0000
  P   P1258     1.0  0.76195  0.54483  0.94800  1.0000
  P   P1259     1.0  0.71579  0.53056  0.94919  1.0000
  P   P1260     1.0  0.71674  0.54386  0.87832  1.0000
  P   P1261     1.0  0.70688  0.53045  0.87862  1.0000
  P   P1262     1.0  0.70737  0.54387  0.94849  1.0000
  P   P1263     1.0  0.66122  0.52960  0.94973  1.0000
  P   P1264     1.0  0.66222  0.54292  0.87896  1.0000
  P   P1265     1.0  0.65233  0.52951  0.87918  1.0000
  P   P1266     1.0  0.65302  0.54302  0.94915  1.0000
  P   P1267     1.0  0.60688  0.52875  0.95039  1.0000
  P   P1268     1.0  0.60791  0.54209  0.87969  1.0000
  P   P1269     1.0  0.59801  0.52867  0.87985  1.0000
  P   P1270     1.0  0.59878  0.54222  0.94988  1.0000
  P   P1271     1.0  0.55263  0.52795  0.95110  1.0000
  P   P1272     1.0  0.55370  0.54130  0.88044  1.0000
  P   P1273     1.0  0.54378  0.52788  0.88055  1.0000
  P   P1274     1.0  0.54456  0.54143  0.95062  1.0000
  P   P1275     1.0  0.49841  0.52716  0.95179  1.0000
  P   P1276     1.0  0.49952  0.54051  0.88112  1.0000
  P   P1277     1.0  0.48957  0.52709  0.88122  1.0000
  P   P1278     1.0  0.49031  0.54062  0.95129  1.0000
  P   P1279     1.0  0.44415  0.52634  0.95239  1.0000
  P   P1280     1.0  0.44530  0.53969  0.88163  1.0000
  P   P1281     1.0  0.43532  0.52625  0.88177  1.0000
  P   P1282     1.0  0.43596  0.53973  0.95178  1.0000
  P   P1283     1.0  0.38978  0.52545  0.95279  1.0000
  P   P1284     1.0  0.39099  0.53876  0.88184  1.0000
  P   P1285     1.0  0.38094  0.52530  0.88207  1.0000
  P   P1286     1.0  0.38143  0.53871  0.95195  1.0000
  P   P1287     1.0  0.33521  0.52440  0.95283  1.0000
  P   P1288     1.0  0.33647  0.53767  0.88157  1.0000
  P   P1289     1.0  0.32633  0.52418  0.88198  1.0000
  P   P1290     1.0  0.32658  0.53747  0.95164  1.0000
  P   P1291     1.0  0.28030  0.52312  0.95236  1.0000
  P   P1292     1.0  0.28156  0.53632  0.88084  1.0000
  P   P1293     1.0  0.27131  0.52281  0.88142  1.0000
  P   P1294     1.0  0.27121  0.53591  0.95089  1.0000
  P   P1295     1.0  0.22488  0.52151  0.95148  1.0000
  P   P1296     1.0  0.22602  0.53467  0.88005  1.0000
  P   P1297     1.0  0.21569  0.52113  0.88060  1.0000
  P   P1298     1.0  0.21517  0.53400  0.95011  1.0000
  P   P1299     1.0  0.16881  0.51959  0.95059  1.0000
  P   P1300     1.0  0.16981  0.53275  0.87954  1.0000
  P   P1301     1.0  0.15947  0.51921  0.87991  1.0000
  P   P1302     1.0  0.15884  0.53198  0.94968  1.0000
  P   P1303     1.0  0.11247  0.51758  0.95014  1.0000
  P   P1304     1.0  0.11339  0.53076  0.87925  1.0000
  P   P1305     1.0  0.10311  0.51724  0.87959  1.0000
  P   P1306     1.0  0.10276  0.53013  0.94948  1.0000
  P   P1307     1.0  0.05642  0.51578  0.95002  1.0000
  P   P1308     1.0  0.05710  0.52888  0.87912  1.0000
  P   P1309     1.0  0.04692  0.51539  0.87952  1.0000
  P   P1310     1.0  0.04673  0.52841  0.94928  1.0000
  P   P1311     1.0  0.00044  0.51411  0.94973  1.0000
  P   P1312     1.0  0.00060  0.52699  0.87875  1.0000
  P   P1313     1.0  0.99058  0.51355  0.87924  1.0000
  P   P1314     1.0  0.99000  0.52648  0.94870  1.0000
  P   P1315     1.0  0.94374  0.51222  0.94900  1.0000
  P   P1316     1.0  0.94338  0.52490  0.87802  1.0000
  P   P1317     1.0  0.93361  0.51153  0.87854  1.0000
  P   P1318     1.0  0.93248  0.52428  0.94787  1.0000
  P   P1319     1.0  0.88622  0.51001  0.94832  1.0000
  P   P1320     1.0  0.88574  0.52266  0.87742  1.0000
  P   P1321     1.0  0.87620  0.50937  0.87780  1.0000
  P   P1322     1.0  0.87486  0.52204  0.94734  1.0000
  P   P1323     1.0  0.82863  0.50775  0.94815  1.0000
  P   P1324     1.0  0.82837  0.52052  0.87733  1.0000
  P   P1325     1.0  0.81904  0.50727  0.87751  1.0000
  P   P1326     1.0  0.81786  0.52004  0.94732  1.0000
  P   P1327     1.0  0.77165  0.50571  0.94814  1.0000
  P   P1328     1.0  0.77182  0.51867  0.87740  1.0000
  P   P1329     1.0  0.76258  0.50544  0.87740  1.0000
  P   P1330     1.0  0.76188  0.51846  0.94745  1.0000
  P   P1331     1.0  0.71567  0.50408  0.94818  1.0000
  P   P1332     1.0  0.71617  0.51720  0.87764  1.0000
  P   P1333     1.0  0.70694  0.50397  0.87742  1.0000
  P   P1334     1.0  0.70673  0.51724  0.94772  1.0000
  P   P1335     1.0  0.66053  0.50283  0.94836  1.0000
  P   P1336     1.0  0.66121  0.51605  0.87809  1.0000
  P   P1337     1.0  0.65197  0.50281  0.87763  1.0000
  P   P1338     1.0  0.65208  0.51624  0.94817  1.0000
  P   P1339     1.0  0.60589  0.50182  0.94871  1.0000
  P   P1340     1.0  0.60667  0.51510  0.87867  1.0000
  P   P1341     1.0  0.59743  0.50186  0.87801  1.0000
  P   P1342     1.0  0.59769  0.51538  0.94875  1.0000
  P   P1343     1.0  0.55150  0.50095  0.94918  1.0000
  P   P1344     1.0  0.55235  0.51426  0.87932  1.0000
  P   P1345     1.0  0.54311  0.50103  0.87849  1.0000
  P   P1346     1.0  0.54341  0.51457  0.94939  1.0000
  P   P1347     1.0  0.49722  0.50013  0.94969  1.0000
  P   P1348     1.0  0.49813  0.51347  0.87998  1.0000
  P   P1349     1.0  0.48889  0.50023  0.87901  1.0000
  P   P1350     1.0  0.48916  0.51377  0.95004  1.0000
  P   P1351     1.0  0.44296  0.49932  0.95021  1.0000
  P   P1352     1.0  0.44391  0.51268  0.88057  1.0000
  P   P1353     1.0  0.43466  0.49944  0.87950  1.0000
  P   P1354     1.0  0.43486  0.51294  0.95062  1.0000
  P   P1355     1.0  0.38864  0.49848  0.95066  1.0000
  P   P1356     1.0  0.38965  0.51183  0.88100  1.0000
  P   P1357     1.0  0.38037  0.49859  0.87991  1.0000
  P   P1358     1.0  0.38044  0.51203  0.95104  1.0000
  P   P1359     1.0  0.33419  0.49755  0.95096  1.0000
  P   P1360     1.0  0.33526  0.51089  0.88115  1.0000
  P   P1361     1.0  0.32591  0.49762  0.88014  1.0000
  P   P1362     1.0  0.32580  0.51096  0.95118  1.0000
  P   P1363     1.0  0.27951  0.49646  0.95100  1.0000
  P   P1364     1.0  0.28062  0.50976  0.88092  1.0000
  P   P1365     1.0  0.27116  0.49646  0.88009  1.0000
  P   P1366     1.0  0.27082  0.50966  0.95093  1.0000
  P   P1367     1.0  0.22448  0.49513  0.95071  1.0000
  P   P1368     1.0  0.22556  0.50837  0.88036  1.0000
  P   P1369     1.0  0.21596  0.49503  0.87978  1.0000
  P   P1370     1.0  0.21533  0.50804  0.95040  1.0000
  P   P1371     1.0  0.16895  0.49348  0.95018  1.0000
  P   P1372     1.0  0.16991  0.50668  0.87985  1.0000
  P   P1373     1.0  0.16017  0.49331  0.87938  1.0000
  P   P1374     1.0  0.15928  0.50612  0.94994  1.0000
  P   P1375     1.0  0.11289  0.49157  0.94977  1.0000
  P   P1376     1.0  0.11368  0.50476  0.87959  1.0000
  P   P1377     1.0  0.10389  0.49137  0.87917  1.0000
  P   P1378     1.0  0.10302  0.50415  0.94977  1.0000
  P   P1379     1.0  0.05662  0.48961  0.94982  1.0000
  P   P1380     1.0  0.05735  0.50281  0.87950  1.0000
  P   P1381     1.0  0.04757  0.48942  0.87932  1.0000
  P   P1382     1.0  0.04705  0.50237  0.94968  1.0000
  P   P1383     1.0  0.00069  0.48790  0.94991  1.0000
  P   P1384     1.0  0.00118  0.50098  0.87937  1.0000
  P   P1385     1.0  0.99147  0.48762  0.87940  1.0000
  P   P1386     1.0  0.99120  0.50075  0.94944  1.0000
  P   P1387     1.0  0.94489  0.48634  0.94960  1.0000
  P   P1388     1.0  0.94485  0.49917  0.87891  1.0000
  P   P1389     1.0  0.93529  0.48586  0.87908  1.0000
  P   P1390     1.0  0.93476  0.49894  0.94882  1.0000
  P   P1391     1.0  0.88849  0.48456  0.94882  1.0000
  P   P1392     1.0  0.88787  0.49715  0.87809  1.0000
  P   P1393     1.0  0.87856  0.48392  0.87829  1.0000
  P   P1394     1.0  0.87752  0.49683  0.94794  1.0000
  P   P1395     1.0  0.83128  0.48243  0.94788  1.0000
  P   P1396     1.0  0.83046  0.49495  0.87725  1.0000
  P   P1397     1.0  0.82142  0.48179  0.87727  1.0000
  P   P1398     1.0  0.82019  0.49464  0.94719  1.0000
  P   P1399     1.0  0.77396  0.48018  0.94737  1.0000
  P   P1400     1.0  0.77330  0.49279  0.87686  1.0000
  P   P1401     1.0  0.76452  0.47970  0.87659  1.0000
  P   P1402     1.0  0.76335  0.49262  0.94683  1.0000
  P   P1403     1.0  0.71712  0.47808  0.94689  1.0000
  P   P1404     1.0  0.71684  0.49089  0.87667  1.0000
  P   P1405     1.0  0.70823  0.47784  0.87603  1.0000
  P   P1406     1.0  0.70736  0.49098  0.94664  1.0000
  P   P1407     1.0  0.66114  0.47636  0.94638  1.0000
  P   P1408     1.0  0.66121  0.48937  0.87664  1.0000
  P   P1409     1.0  0.65265  0.47632  0.87556  1.0000
  P   P1410     1.0  0.65216  0.48969  0.94659  1.0000
  P   P1411     1.0  0.60595  0.47503  0.94607  1.0000
  P   P1412     1.0  0.60625  0.48819  0.87680  1.0000
  P   P1413     1.0  0.59770  0.47514  0.87533  1.0000
  P   P1414     1.0  0.59748  0.48867  0.94672  1.0000
  P   P1415     1.0  0.55128  0.47397  0.94599  1.0000
  P   P1416     1.0  0.55171  0.48723  0.87709  1.0000
  P   P1417     1.0  0.54316  0.47417  0.87532  1.0000
  P   P1418     1.0  0.54308  0.48778  0.94701  1.0000
  P   P1419     1.0  0.49689  0.47306  0.94607  1.0000
  P   P1420     1.0  0.49740  0.48638  0.87747  1.0000
  P   P1421     1.0  0.48885  0.47333  0.87546  1.0000
  P   P1422     1.0  0.48880  0.48696  0.94738  1.0000
  P   P1423     1.0  0.44261  0.47222  0.94626  1.0000
  P   P1424     1.0  0.44317  0.48558  0.87788  1.0000
  P   P1425     1.0  0.43463  0.47254  0.87569  1.0000
  P   P1426     1.0  0.43454  0.48615  0.94779  1.0000
  P   P1427     1.0  0.38834  0.47139  0.94650  1.0000
  P   P1428     1.0  0.38895  0.48478  0.87827  1.0000
  P   P1429     1.0  0.38041  0.47174  0.87595  1.0000
  P   P1430     1.0  0.38023  0.48531  0.94817  1.0000
  P   P1431     1.0  0.33401  0.47053  0.94674  1.0000
  P   P1432     1.0  0.33465  0.48393  0.87856  1.0000
  P   P1433     1.0  0.32610  0.47089  0.87618  1.0000
  P   P1434     1.0  0.32576  0.48438  0.94847  1.0000
  P   P1435     1.0  0.27952  0.46958  0.94692  1.0000
  P   P1436     1.0  0.28018  0.48297  0.87867  1.0000
  P   P1437     1.0  0.27160  0.46992  0.87633  1.0000
  P   P1438     1.0  0.27104  0.48328  0.94860  1.0000
  P   P1439     1.0  0.22476  0.46847  0.94702  1.0000
  P   P1440     1.0  0.22540  0.48182  0.87861  1.0000
  P   P1441     1.0  0.21676  0.46875  0.87638  1.0000
  P   P1442     1.0  0.21592  0.48192  0.94859  1.0000
  P   P1443     1.0  0.16958  0.46711  0.94708  1.0000
  P   P1444     1.0  0.17016  0.48040  0.87848  1.0000
  P   P1445     1.0  0.16141  0.46730  0.87645  1.0000
  P   P1446     1.0  0.16029  0.48026  0.94854  1.0000
  P   P1447     1.0  0.11390  0.46544  0.94724  1.0000
  P   P1448     1.0  0.11435  0.47869  0.87857  1.0000
  P   P1449     1.0  0.10545  0.46555  0.87673  1.0000
  P   P1450     1.0  0.10414  0.47833  0.94872  1.0000
  P   P1451     1.0  0.05773  0.46353  0.94773  1.0000
  P   P1452     1.0  0.05807  0.47676  0.87894  1.0000
  P   P1453     1.0  0.04907  0.46359  0.87740  1.0000
  P   P1454     1.0  0.04786  0.47637  0.94917  1.0000
  P   P1455     1.0  0.00142  0.46158  0.94870  1.0000
  P   P1456     1.0  0.00178  0.47483  0.87936  1.0000
  P   P1457     1.0  0.99275  0.46164  0.87838  1.0000
  P   P1458     1.0  0.99193  0.47466  0.94948  1.0000
  P   P1459     1.0  0.94553  0.45993  0.94918  1.0000
  P   P1460     1.0  0.94571  0.47305  0.87942  1.0000
  P   P1461     1.0  0.93670  0.45988  0.87878  1.0000
  P   P1462     1.0  0.93618  0.47312  0.94936  1.0000
  P   P1463     1.0  0.88984  0.45845  0.94894  1.0000
  P   P1464     1.0  0.88952  0.47131  0.87898  1.0000
  P   P1465     1.0  0.88063  0.45817  0.87845  1.0000
  P   P1466     1.0  0.87996  0.47141  0.94879  1.0000
  P   P1467     1.0  0.83367  0.45677  0.94803  1.0000
  P   P1468     1.0  0.83277  0.46935  0.87804  1.0000
  P   P1469     1.0  0.82409  0.45628  0.87747  1.0000
  P   P1470     1.0  0.82299  0.46936  0.94781  1.0000
  P   P1471     1.0  0.77673  0.45469  0.94668  1.0000
  P   P1472     1.0  0.77561  0.46716  0.87681  1.0000
  P   P1473     1.0  0.76715  0.45416  0.87604  1.0000
  P   P1474     1.0  0.76596  0.46718  0.94673  1.0000
  P   P1475     1.0  0.71972  0.45242  0.94568  1.0000
  P   P1476     1.0  0.71872  0.46498  0.87585  1.0000
  P   P1477     1.0  0.71045  0.45202  0.87495  1.0000
  P   P1478     1.0  0.70938  0.46514  0.94579  1.0000
  P   P1479     1.0  0.66315  0.45026  0.94473  1.0000
  P   P1480     1.0  0.66244  0.46304  0.87514  1.0000
  P   P1481     1.0  0.65429  0.45010  0.87407  1.0000
  P   P1482     1.0  0.65351  0.46343  0.94502  1.0000
  P   P1483     1.0  0.60731  0.44846  0.94384  1.0000
  P   P1484     1.0  0.60687  0.46146  0.87464  1.0000
  P   P1485     1.0  0.59876  0.44853  0.87335  1.0000
  P   P1486     1.0  0.59835  0.46209  0.94445  1.0000
  P   P1487     1.0  0.55218  0.44706  0.94320  1.0000
  P   P1488     1.0  0.55192  0.46024  0.87438  1.0000
  P   P1489     1.0  0.54382  0.44731  0.87290  1.0000
  P   P1490     1.0  0.54368  0.46103  0.94415  1.0000
  P   P1491     1.0  0.49753  0.44597  0.94284  1.0000
  P   P1492     1.0  0.49740  0.45926  0.87430  1.0000
  P   P1493     1.0  0.48927  0.44632  0.87268  1.0000
  P   P1494     1.0  0.48929  0.46012  0.94406  1.0000
  P   P1495     1.0  0.44316  0.44503  0.94271  1.0000
  P   P1496     1.0  0.44309  0.45840  0.87436  1.0000
  P   P1497     1.0  0.43496  0.44546  0.87265  1.0000
  P   P1498     1.0  0.43503  0.45928  0.94412  1.0000
  P   P1499     1.0  0.38891  0.44418  0.94274  1.0000
  P   P1500     1.0  0.38888  0.45760  0.87450  1.0000
  P   P1501     1.0  0.38074  0.44465  0.87275  1.0000
  P   P1502     1.0  0.38080  0.45846  0.94428  1.0000
  P   P1503     1.0  0.33467  0.44335  0.94287  1.0000
  P   P1504     1.0  0.33465  0.45680  0.87467  1.0000
  P   P1505     1.0  0.32653  0.44386  0.87292  1.0000
  P   P1506     1.0  0.32650  0.45762  0.94446  1.0000
  P   P1507     1.0  0.28037  0.44250  0.94301  1.0000
  P   P1508     1.0  0.28034  0.45595  0.87478  1.0000
  P   P1509     1.0  0.27223  0.44301  0.87308  1.0000
  P   P1510     1.0  0.27205  0.45668  0.94460  1.0000
  P   P1511     1.0  0.22590  0.44158  0.94310  1.0000
  P   P1512     1.0  0.22584  0.45499  0.87479  1.0000
  P   P1513     1.0  0.21774  0.44206  0.87314  1.0000
  P   P1514     1.0  0.21731  0.45559  0.94467  1.0000
  P   P1515     1.0  0.17113  0.44050  0.94314  1.0000
  P   P1516     1.0  0.17098  0.45385  0.87479  1.0000
  P   P1517     1.0  0.16290  0.44093  0.87311  1.0000
  P   P1518     1.0  0.16214  0.45423  0.94478  1.0000
  P   P1519     1.0  0.11591  0.43916  0.94328  1.0000
  P   P1520     1.0  0.11560  0.45243  0.87506  1.0000
  P   P1521     1.0  0.10751  0.43951  0.87324  1.0000
  P   P1522     1.0  0.10638  0.45256  0.94520  1.0000
  P   P1523     1.0  0.06009  0.43748  0.94393  1.0000
  P   P1524     1.0  0.05962  0.45070  0.87594  1.0000
  P   P1525     1.0  0.05145  0.43776  0.87401  1.0000
  P   P1526     1.0  0.05006  0.45060  0.94624  1.0000
  P   P1527     1.0  0.00368  0.43550  0.94544  1.0000
  P   P1528     1.0  0.00323  0.44876  0.87734  1.0000
  P   P1529     1.0  0.99495  0.43578  0.87565  1.0000
  P   P1530     1.0  0.99361  0.44860  0.94769  1.0000
  P   P1531     1.0  0.94718  0.43349  0.94736  1.0000
  P   P1532     1.0  0.94696  0.44683  0.87847  1.0000
  P   P1533     1.0  0.93854  0.43382  0.87753  1.0000
  P   P1534     1.0  0.93764  0.44692  0.94857  1.0000
  P   P1535     1.0  0.89124  0.43187  0.94818  1.0000
  P   P1536     1.0  0.89093  0.44509  0.87876  1.0000
  P   P1537     1.0  0.88246  0.43206  0.87821  1.0000
  P   P1538     1.0  0.88196  0.44545  0.94862  1.0000
  P   P1539     1.0  0.83560  0.43044  0.94805  1.0000
  P   P1540     1.0  0.83484  0.44338  0.87833  1.0000
  P   P1541     1.0  0.82644  0.43038  0.87792  1.0000
  P   P1542     1.0  0.82593  0.44383  0.94803  1.0000
  P   P1543     1.0  0.77961  0.42885  0.94710  1.0000
  P   P1544     1.0  0.77827  0.44145  0.87716  1.0000
  P   P1545     1.0  0.77005  0.42850  0.87680  1.0000
  P   P1546     1.0  0.76914  0.44181  0.94684  1.0000
  P   P1547     1.0  0.72285  0.42680  0.94551  1.0000
  P   P1548     1.0  0.72131  0.43926  0.87547  1.0000
  P   P1549     1.0  0.71322  0.42635  0.87507  1.0000
  P   P1550     1.0  0.71222  0.43955  0.94535  1.0000
  P   P1551     1.0  0.66595  0.42448  0.94429  1.0000
  P   P1552     1.0  0.66460  0.43705  0.87414  1.0000
  P   P1553     1.0  0.65654  0.42414  0.87385  1.0000
  P   P1554     1.0  0.65580  0.43742  0.94412  1.0000
  P   P1555     1.0  0.60956  0.42227  0.94347  1.0000
  P   P1556     1.0  0.60845  0.43506  0.87329  1.0000
  P   P1557     1.0  0.60041  0.42215  0.87320  1.0000
  P   P1558     1.0  0.60007  0.43564  0.94322  1.0000
  P   P1559     1.0  0.55388  0.42044  0.94292  1.0000
  P   P1560     1.0  0.55295  0.43344  0.87273  1.0000
  P   P1561     1.0  0.54495  0.42054  0.87287  1.0000
  P   P1562     1.0  0.54498  0.43425  0.94258  1.0000
  P   P1563     1.0  0.49884  0.41904  0.94253  1.0000
  P   P1564     1.0  0.49803  0.43219  0.87238  1.0000
  P   P1565     1.0  0.49004  0.41929  0.87267  1.0000
  P   P1566     1.0  0.49034  0.43316  0.94217  1.0000
  P   P1567     1.0  0.44423  0.41794  0.94231  1.0000
  P   P1568     1.0  0.44351  0.43119  0.87221  1.0000
  P   P1569     1.0  0.43551  0.41828  0.87258  1.0000
  P   P1570     1.0  0.43597  0.43223  0.94198  1.0000
  P   P1571     1.0  0.38988  0.41700  0.94226  1.0000
  P   P1572     1.0  0.38920  0.43032  0.87218  1.0000
  P   P1573     1.0  0.38121  0.41741  0.87262  1.0000
  P   P1574     1.0  0.38173  0.43138  0.94197  1.0000
  P   P1575     1.0  0.33564  0.41616  0.94235  1.0000
  P   P1576     1.0  0.33499  0.42952  0.87227  1.0000
  P   P1577     1.0  0.32700  0.41661  0.87277  1.0000
  P   P1578     1.0  0.32752  0.43056  0.94208  1.0000
  P   P1579     1.0  0.28143  0.41534  0.94251  1.0000
  P   P1580     1.0  0.28078  0.42872  0.87239  1.0000
  P   P1581     1.0  0.27281  0.41582  0.87296  1.0000
  P   P1582     1.0  0.27325  0.42972  0.94222  1.0000
  P   P1583     1.0  0.22716  0.41451  0.94266  1.0000
  P   P1584     1.0  0.22648  0.42789  0.87247  1.0000
  P   P1585     1.0  0.21855  0.41500  0.87312  1.0000
  P   P1586     1.0  0.21882  0.42881  0.94232  1.0000
  P   P1587     1.0  0.17272  0.41361  0.94271  1.0000
  P   P1588     1.0  0.17198  0.42696  0.87241  1.0000
  P   P1589     1.0  0.16409  0.41408  0.87313  1.0000
  P   P1590     1.0  0.16412  0.42776  0.94232  1.0000
  P   P1591     1.0  0.11800  0.41258  0.94262  1.0000
  P   P1592     1.0  0.11713  0.42585  0.87230  1.0000
  P   P1593     1.0  0.10928  0.41299  0.87300  1.0000
  P   P1594     1.0  0.10898  0.42645  0.94233  1.0000
  P   P1595     1.0  0.06282  0.41129  0.94261  1.0000
  P   P1596     1.0  0.06173  0.42446  0.87253  1.0000
  P   P1597     1.0  0.05390  0.41162  0.87301  1.0000
  P   P1598     1.0  0.05323  0.42479  0.94280  1.0000
  P   P1599     1.0  0.00698  0.40963  0.94327  1.0000
  P   P1600     1.0  0.00565  0.42275  0.87388  1.0000
  P   P1601     1.0  0.99782  0.40991  0.87385  1.0000
  P   P1602     1.0  0.99676  0.42278  0.94442  1.0000
  P   P1603     1.0  0.95036  0.40757  0.94518  1.0000
  P   P1604     1.0  0.94916  0.42080  0.87608  1.0000
  P   P1605     1.0  0.94120  0.40792  0.87595  1.0000
  P   P1606     1.0  0.94007  0.42070  0.94668  1.0000
  P   P1607     1.0  0.89360  0.40550  0.94714  1.0000
  P   P1608     1.0  0.89280  0.41888  0.87771  1.0000
  P   P1609     1.0  0.88457  0.40593  0.87791  1.0000
  P   P1610     1.0  0.88396  0.41902  0.94807  1.0000
  P   P1611     1.0  0.83750  0.40383  0.94812  1.0000
  P   P1612     1.0  0.83672  0.41714  0.87829  1.0000
  P   P1613     1.0  0.82831  0.40413  0.87879  1.0000
  P   P1614     1.0  0.82831  0.41759  0.94843  1.0000
  P   P1615     1.0  0.78186  0.40240  0.94846  1.0000
  P   P1616     1.0  0.78067  0.41543  0.87811  1.0000
  P   P1617     1.0  0.77223  0.40241  0.87896  1.0000
  P   P1618     1.0  0.77249  0.41606  0.94806  1.0000
  P   P1619     1.0  0.72605  0.40085  0.94811  1.0000
  P   P1620     1.0  0.72424  0.41349  0.87698  1.0000
  P   P1621     1.0  0.71594  0.40052  0.87837  1.0000
  P   P1622     1.0  0.71587  0.41408  0.94681  1.0000
  P   P1623     1.0  0.66945  0.39882  0.94687  1.0000
  P   P1624     1.0  0.66737  0.41127  0.87510  1.0000
  P   P1625     1.0  0.65924  0.39835  0.87692  1.0000
  P   P1626     1.0  0.65882  0.41172  0.94507  1.0000
  P   P1627     1.0  0.61248  0.39644  0.94573  1.0000
  P   P1628     1.0  0.61068  0.40901  0.87386  1.0000
  P   P1629     1.0  0.60256  0.39609  0.87569  1.0000
  P   P1630     1.0  0.60232  0.40947  0.94399  1.0000
  P   P1631     1.0  0.55606  0.39421  0.94531  1.0000
  P   P1632     1.0  0.55458  0.40699  0.87337  1.0000
  P   P1633     1.0  0.54646  0.39406  0.87537  1.0000
  P   P1634     1.0  0.54663  0.40763  0.94350  1.0000
  P   P1635     1.0  0.50043  0.39238  0.94524  1.0000
  P   P1636     1.0  0.49915  0.40537  0.87317  1.0000
  P   P1637     1.0  0.49106  0.39244  0.87548  1.0000
  P   P1638     1.0  0.49160  0.40623  0.94320  1.0000
  P   P1639     1.0  0.44545  0.39100  0.94517  1.0000
  P   P1640     1.0  0.44429  0.40412  0.87304  1.0000
  P   P1641     1.0  0.43622  0.39120  0.87558  1.0000
  P   P1642     1.0  0.43699  0.40512  0.94300  1.0000
  P   P1643     1.0  0.39088  0.38991  0.94508  1.0000
  P   P1644     1.0  0.38979  0.40312  0.87296  1.0000
  P   P1645     1.0  0.38173  0.39021  0.87560  1.0000
  P   P1646     1.0  0.38264  0.40418  0.94293  1.0000
  P   P1647     1.0  0.33655  0.38900  0.94505  1.0000
  P   P1648     1.0  0.33550  0.40226  0.87298  1.0000
  P   P1649     1.0  0.32744  0.38935  0.87564  1.0000
  P   P1650     1.0  0.32840  0.40333  0.94298  1.0000
  P   P1651     1.0  0.28233  0.38817  0.94508  1.0000
  P   P1652     1.0  0.28130  0.40147  0.87307  1.0000
  P   P1653     1.0  0.27324  0.38855  0.87571  1.0000
  P   P1654     1.0  0.27421  0.40251  0.94313  1.0000
  P   P1655     1.0  0.22813  0.38737  0.94514  1.0000
  P   P1656     1.0  0.22712  0.40069  0.87319  1.0000
  P   P1657     1.0  0.21908  0.38778  0.87578  1.0000
  P   P1658     1.0  0.21996  0.40169  0.94328  1.0000
  P   P1659     1.0  0.17389  0.38657  0.94514  1.0000
  P   P1660     1.0  0.17286  0.39988  0.87325  1.0000
  P   P1661     1.0  0.16486  0.38698  0.87577  1.0000
  P   P1662     1.0  0.16557  0.40081  0.94336  1.0000
  P   P1663     1.0  0.11948  0.38571  0.94499  1.0000
  P   P1664     1.0  0.11840  0.39899  0.87316  1.0000
  P   P1665     1.0  0.11047  0.38612  0.87557  1.0000
  P   P1666     1.0  0.11090  0.39979  0.94332  1.0000
  P   P1667     1.0  0.06479  0.38473  0.94468  1.0000
  P   P1668     1.0  0.06358  0.39793  0.87301  1.0000
  P   P1669     1.0  0.05574  0.38509  0.87519  1.0000
  P   P1670     1.0  0.05577  0.39853  0.94329  1.0000
  P   P1671     1.0  0.00962  0.38351  0.94438  1.0000
  P   P1672     1.0  0.00819  0.39660  0.87315  1.0000
  P   P1673     1.0  0.00041  0.38378  0.87487  1.0000
  P   P1674     1.0  0.99996  0.39687  0.94369  1.0000
  P   P1675     1.0  0.95372  0.38191  0.94453  1.0000
  P   P1676     1.0  0.95210  0.39493  0.87418  1.0000
  P   P1677     1.0  0.94428  0.38211  0.87514  1.0000
  P   P1678     1.0  0.94334  0.39480  0.94499  1.0000
  P   P1679     1.0  0.89698  0.37989  0.94544  1.0000
  P   P1680     1.0  0.89551  0.39301  0.87596  1.0000
  P   P1681     1.0  0.88743  0.38012  0.87626  1.0000
  P   P1682     1.0  0.88641  0.39268  0.94679  1.0000
  P   P1683     1.0  0.83996  0.37780  0.94665  1.0000
  P   P1684     1.0  0.83890  0.39107  0.87743  1.0000
  P   P1685     1.0  0.83041  0.37807  0.87759  1.0000
  P   P1686     1.0  0.83001  0.39092  0.94814  1.0000
  P   P1687     1.0  0.78352  0.37602  0.94785  1.0000
  P   P1688     1.0  0.78262  0.38928  0.87837  1.0000
  P   P1689     1.0  0.77380  0.37617  0.87877  1.0000
  P   P1690     1.0  0.77422  0.38944  0.94897  1.0000
  P   P1691     1.0  0.72769  0.37448  0.94889  1.0000
  P   P1692     1.0  0.72650  0.38751  0.87884  1.0000
  P   P1693     1.0  0.71755  0.37437  0.87969  1.0000
  P   P1694     1.0  0.71848  0.38791  0.94934  1.0000
  P   P1695     1.0  0.67189  0.37286  0.94955  1.0000
  P   P1696     1.0  0.67015  0.38554  0.87849  1.0000
  P   P1697     1.0  0.66127  0.37242  0.88013  1.0000
  P   P1698     1.0  0.66218  0.38599  0.94892  1.0000
  P   P1699     1.0  0.61554  0.37083  0.94968  1.0000
  P   P1700     1.0  0.61342  0.38329  0.87737  1.0000
  P   P1701     1.0  0.60477  0.37024  0.88004  1.0000
  P   P1702     1.0  0.60530  0.38366  0.94786  1.0000
  P   P1703     1.0  0.55871  0.36843  0.94958  1.0000
  P   P1704     1.0  0.55675  0.38100  0.87653  1.0000
  P   P1705     1.0  0.54829  0.36799  0.87984  1.0000
  P   P1706     1.0  0.54876  0.38138  0.94713  1.0000
  P   P1707     1.0  0.50231  0.36618  0.94959  1.0000
  P   P1708     1.0  0.50068  0.37898  0.87633  1.0000
  P   P1709     1.0  0.49230  0.36598  0.87993  1.0000
  P   P1710     1.0  0.49302  0.37950  0.94692  1.0000
  P   P1711     1.0  0.44671  0.36440  0.94962  1.0000
  P   P1712     1.0  0.44534  0.37739  0.87635  1.0000
  P   P1713     1.0  0.43699  0.36441  0.88008  1.0000
  P   P1714     1.0  0.43798  0.37808  0.94687  1.0000
  P   P1715     1.0  0.39176  0.36307  0.94940  1.0000
  P   P1716     1.0  0.39054  0.37618  0.87628  1.0000
  P   P1717     1.0  0.38221  0.36321  0.87996  1.0000
  P   P1718     1.0  0.38338  0.37698  0.94675  1.0000
  P   P1719     1.0  0.33720  0.36204  0.94903  1.0000
  P   P1720     1.0  0.33608  0.37522  0.87614  1.0000
  P   P1721     1.0  0.32773  0.36224  0.87965  1.0000
  P   P1722     1.0  0.32901  0.37605  0.94661  1.0000
  P   P1723     1.0  0.28286  0.36116  0.94865  1.0000
  P   P1724     1.0  0.28180  0.37438  0.87601  1.0000
  P   P1725     1.0  0.27342  0.36139  0.87931  1.0000
  P   P1726     1.0  0.27475  0.37521  0.94651  1.0000
  P   P1727     1.0  0.22862  0.36036  0.94832  1.0000
  P   P1728     1.0  0.22762  0.37360  0.87592  1.0000
  P   P1729     1.0  0.21920  0.36061  0.87900  1.0000
  P   P1730     1.0  0.22055  0.37441  0.94644  1.0000
  P   P1731     1.0  0.17442  0.35959  0.94801  1.0000
  P   P1732     1.0  0.17346  0.37284  0.87578  1.0000
  P   P1733     1.0  0.16502  0.35984  0.87868  1.0000
  P   P1734     1.0  0.16631  0.37361  0.94631  1.0000
  P   P1735     1.0  0.12019  0.35882  0.94762  1.0000
  P   P1736     1.0  0.11924  0.37206  0.87553  1.0000
  P   P1737     1.0  0.11080  0.35906  0.87826  1.0000
  P   P1738     1.0  0.11195  0.37277  0.94604  1.0000
  P   P1739     1.0  0.06584  0.35800  0.94702  1.0000
  P   P1740     1.0  0.06485  0.37120  0.87507  1.0000
  P   P1741     1.0  0.05645  0.35822  0.87760  1.0000
  P   P1742     1.0  0.05732  0.37181  0.94554  1.0000
  P   P1743     1.0  0.01122  0.35707  0.94613  1.0000
  P   P1744     1.0  0.01011  0.37019  0.87443  1.0000
  P   P1745     1.0  0.00179  0.35724  0.87663  1.0000
  P   P1746     1.0  0.00219  0.37062  0.94491  1.0000
  P   P1747     1.0  0.95609  0.35592  0.94503  1.0000
  P   P1748     1.0  0.95477  0.36893  0.87394  1.0000
  P   P1749     1.0  0.94655  0.35601  0.87547  1.0000
  P   P1750     1.0  0.94626  0.36902  0.94450  1.0000
  P   P1751     1.0  0.90016  0.35441  0.94409  1.0000
  P   P1752     1.0  0.89862  0.36732  0.87409  1.0000
  P   P1753     1.0  0.89040  0.35441  0.87459  1.0000
  P   P1754     1.0  0.88939  0.36698  0.94477  1.0000
  P   P1755     1.0  0.84322  0.35245  0.94401  1.0000
  P   P1756     1.0  0.84177  0.36542  0.87506  1.0000
  P   P1757     1.0  0.83329  0.35243  0.87469  1.0000
  P   P1758     1.0  0.83208  0.36482  0.94579  1.0000
  P   P1759     1.0  0.78580  0.35030  0.94508  1.0000
  P   P1760     1.0  0.78476  0.36342  0.87647  1.0000
  P   P1761     1.0  0.77582  0.35030  0.87590  1.0000
  P   P1762     1.0  0.77524  0.36290  0.94724  1.0000
  P   P1763     1.0  0.72885  0.34832  0.94683  1.0000
  P   P1764     1.0  0.72812  0.36151  0.87795  1.0000
  P   P1765     1.0  0.71879  0.34827  0.87766  1.0000
  P   P1766     1.0  0.71911  0.36126  0.94874  1.0000
  P   P1767     1.0  0.67262  0.34658  0.94860  1.0000
  P   P1768     1.0  0.67181  0.35963  0.87922  1.0000
  P   P1769     1.0  0.66228  0.34633  0.87930  1.0000
  P   P1770     1.0  0.66321  0.35960  0.95001  1.0000
  P   P1771     1.0  0.61662  0.34479  0.95002  1.0000
  P   P1772     1.0  0.61548  0.35759  0.87992  1.0000
  P   P1773     1.0  0.60594  0.34429  0.88052  1.0000
  P   P1774     1.0  0.60702  0.35762  0.95077  1.0000
  P   P1775     1.0  0.56032  0.34265  0.95115  1.0000
  P   P1776     1.0  0.55895  0.35534  0.88027  1.0000
  P   P1777     1.0  0.54961  0.34209  0.88152  1.0000
  P   P1778     1.0  0.55052  0.35532  0.95125  1.0000
  P   P1779     1.0  0.50380  0.34026  0.95222  1.0000
  P   P1780     1.0  0.50251  0.35307  0.88055  1.0000
  P   P1781     1.0  0.49345  0.33989  0.88263  1.0000
  P   P1782     1.0  0.49430  0.35311  0.95160  1.0000
  P   P1783     1.0  0.44771  0.33813  0.95290  1.0000
  P   P1784     1.0  0.44659  0.35110  0.88066  1.0000
  P   P1785     1.0  0.43776  0.33800  0.88336  1.0000
  P   P1786     1.0  0.43870  0.35132  0.95161  1.0000
  P   P1787     1.0  0.39228  0.33650  0.95274  1.0000
  P   P1788     1.0  0.39135  0.34959  0.88044  1.0000
  P   P1789     1.0  0.38261  0.33652  0.88321  1.0000
  P   P1790     1.0  0.38371  0.34998  0.95124  1.0000
  P   P1791     1.0  0.33741  0.33529  0.95196  1.0000
  P   P1792     1.0  0.33660  0.34844  0.87995  1.0000
  P   P1793     1.0  0.32787  0.33537  0.88245  1.0000
  P   P1794     1.0  0.32911  0.34894  0.95066  1.0000
  P   P1795     1.0  0.28289  0.33432  0.95110  1.0000
  P   P1796     1.0  0.28214  0.34751  0.87942  1.0000
  P   P1797     1.0  0.27338  0.33443  0.88161  1.0000
  P   P1798     1.0  0.27473  0.34806  0.95010  1.0000
  P   P1799     1.0  0.22854  0.33348  0.95039  1.0000
  P   P1800     1.0  0.22783  0.34668  0.87894  1.0000
  P   P1801     1.0  0.21904  0.33360  0.88092  1.0000
  P   P1802     1.0  0.22046  0.34725  0.94963  1.0000
  P   P1803     1.0  0.17429  0.33270  0.94983  1.0000
  P   P1804     1.0  0.17361  0.34591  0.87853  1.0000
  P   P1805     1.0  0.16478  0.33282  0.88035  1.0000
  P   P1806     1.0  0.16623  0.34648  0.94922  1.0000
  P   P1807     1.0  0.12008  0.33195  0.94933  1.0000
  P   P1808     1.0  0.11942  0.34515  0.87808  1.0000
  P   P1809     1.0  0.11056  0.33205  0.87984  1.0000
  P   P1810     1.0  0.11200  0.34571  0.94876  1.0000
  P   P1811     1.0  0.06586  0.33120  0.94879  1.0000
  P   P1812     1.0  0.06520  0.34438  0.87749  1.0000
  P   P1813     1.0  0.05631  0.33127  0.87925  1.0000
  P   P1814     1.0  0.05770  0.34491  0.94814  1.0000
  P   P1815     1.0  0.01157  0.33041  0.94805  1.0000
  P   P1816     1.0  0.01084  0.34354  0.87665  1.0000
  P   P1817     1.0  0.00196  0.33043  0.87846  1.0000
  P   P1818     1.0  0.00318  0.34402  0.94724  1.0000
  P   P1819     1.0  0.95706  0.32954  0.94696  1.0000
  P   P1820     1.0  0.95617  0.34257  0.87548  1.0000
  P   P1821     1.0  0.94734  0.32947  0.87731  1.0000
  P   P1822     1.0  0.94820  0.34292  0.94602  1.0000
  P   P1823     1.0  0.90211  0.32847  0.94542  1.0000
  P   P1824     1.0  0.90090  0.34135  0.87416  1.0000
  P   P1825     1.0  0.89219  0.32830  0.87574  1.0000
  P   P1826     1.0  0.89238  0.34146  0.94468  1.0000
  P   P1827     1.0  0.84632  0.32705  0.94374  1.0000
  P   P1828     1.0  0.84473  0.33980  0.87331  1.0000
  P   P1829     1.0  0.83612  0.32678  0.87412  1.0000
  P   P1830     1.0  0.83541  0.33951  0.94387  1.0000
  P   P1831     1.0  0.78936  0.32516  0.94279  1.0000
  P   P1832     1.0  0.78760  0.33789  0.87370  1.0000
  P   P1833     1.0  0.77894  0.32486  0.87336  1.0000
  P   P1834     1.0  0.77765  0.33726  0.94437  1.0000
  P   P1835     1.0  0.73151  0.32290  0.94358  1.0000
  P   P1836     1.0  0.73013  0.33580  0.87533  1.0000
  P   P1837     1.0  0.72115  0.32268  0.87429  1.0000
  P   P1838     1.0  0.72016  0.33510  0.94613  1.0000
  P   P1839     1.0  0.67386  0.32065  0.94564  1.0000
  P   P1840     1.0  0.67308  0.33374  0.87737  1.0000
  P   P1841     1.0  0.66371  0.32050  0.87630  1.0000
  P   P1842     1.0  0.66349  0.33322  0.94824  1.0000
  P   P1843     1.0  0.61706  0.31863  0.94779  1.0000
  P   P1844     1.0  0.61652  0.33171  0.87912  1.0000
  P   P1845     1.0  0.60689  0.31839  0.87828  1.0000
  P   P1846     1.0  0.60724  0.33135  0.95003  1.0000
  P   P1847     1.0  0.56068  0.31660  0.94957  1.0000
  P   P1848     1.0  0.56013  0.32958  0.88036  1.0000
  P   P1849     1.0  0.55039  0.31621  0.87987  1.0000
  P   P1850     1.0  0.55095  0.32921  0.95139  1.0000
  P   P1851     1.0  0.50426  0.31429  0.95126  1.0000
  P   P1852     1.0  0.50379  0.32731  0.88152  1.0000
  P   P1853     1.0  0.49410  0.31396  0.88152  1.0000
  P   P1854     1.0  0.49467  0.32688  0.95271  1.0000
  P   P1855     1.0  0.44800  0.31196  0.95285  1.0000
  P   P1856     1.0  0.44768  0.32512  0.88253  1.0000
  P   P1857     1.0  0.43819  0.31183  0.88319  1.0000
  P   P1858     1.0  0.43879  0.32481  0.95362  1.0000
  P   P1859     1.0  0.39228  0.31005  0.95349  1.0000
  P   P1860     1.0  0.39208  0.32329  0.88270  1.0000
  P   P1861     1.0  0.38280  0.31006  0.88377  1.0000
  P   P1862     1.0  0.38348  0.32321  0.95354  1.0000
  P   P1863     1.0  0.33713  0.30861  0.95291  1.0000
  P   P1864     1.0  0.33698  0.32187  0.88209  1.0000
  P   P1865     1.0  0.32784  0.30869  0.88314  1.0000
  P   P1866     1.0  0.32865  0.32201  0.95275  1.0000
  P   P1867     1.0  0.28241  0.30750  0.95191  1.0000
  P   P1868     1.0  0.28226  0.32077  0.88122  1.0000
  P   P1869     1.0  0.27317  0.30760  0.88213  1.0000
  P   P1870     1.0  0.27414  0.32105  0.95182  1.0000
  P   P1871     1.0  0.22795  0.30658  0.95105  1.0000
  P   P1872     1.0  0.22778  0.31985  0.88044  1.0000
  P   P1873     1.0  0.21871  0.30668  0.88128  1.0000
  P   P1874     1.0  0.21981  0.32022  0.95104  1.0000
  P   P1875     1.0  0.17364  0.30575  0.95042  1.0000
  P   P1876     1.0  0.17343  0.31902  0.87984  1.0000
  P   P1877     1.0  0.16437  0.30585  0.88067  1.0000
  P   P1878     1.0  0.16556  0.31944  0.95045  1.0000
  P   P1879     1.0  0.11941  0.30498  0.94996  1.0000
  P   P1880     1.0  0.11917  0.31824  0.87935  1.0000
  P   P1881     1.0  0.11010  0.30507  0.88021  1.0000
  P   P1882     1.0  0.11135  0.31869  0.94996  1.0000
  P   P1883     1.0  0.06521  0.30424  0.94957  1.0000
  P   P1884     1.0  0.06494  0.31748  0.87888  1.0000
  P   P1885     1.0  0.05585  0.30430  0.87982  1.0000
  P   P1886     1.0  0.05714  0.31794  0.94947  1.0000
  P   P1887     1.0  0.01100  0.30350  0.94915  1.0000
  P   P1888     1.0  0.01069  0.31670  0.87830  1.0000
  P   P1889     1.0  0.00157  0.30352  0.87939  1.0000
  P   P1890     1.0  0.00287  0.31717  0.94887  1.0000
  P   P1891     1.0  0.95674  0.30274  0.94859  1.0000
  P   P1892     1.0  0.95632  0.31587  0.87749  1.0000
  P   P1893     1.0  0.94720  0.30269  0.87878  1.0000
  P   P1894     1.0  0.94845  0.31632  0.94801  1.0000
  P   P1895     1.0  0.90233  0.30192  0.94770  1.0000
  P   P1896     1.0  0.90170  0.31492  0.87632  1.0000
  P   P1897     1.0  0.89261  0.30176  0.87785  1.0000
  P   P1898     1.0  0.89366  0.31532  0.94679  1.0000
  P   P1899     1.0  0.84756  0.30094  0.94631  1.0000
  P   P1900     1.0  0.84652  0.31376  0.87481  1.0000
  P   P1901     1.0  0.83757  0.30063  0.87642  1.0000
  P   P1902     1.0  0.83813  0.31400  0.94524  1.0000
  P   P1903     1.0  0.79205  0.29965  0.94444  1.0000
  P   P1904     1.0  0.79044  0.31226  0.87336  1.0000
  P   P1905     1.0  0.78169  0.29920  0.87462  1.0000
  P   P1906     1.0  0.78140  0.31220  0.94383  1.0000
  P   P1907     1.0  0.73535  0.29788  0.94287  1.0000
  P   P1908     1.0  0.73322  0.31036  0.87303  1.0000
  P   P1909     1.0  0.72467  0.29736  0.87324  1.0000
  P   P1910     1.0  0.72343  0.30990  0.94364  1.0000
  P   P1911     1.0  0.67736  0.29557  0.94280  1.0000
  P   P1912     1.0  0.67542  0.30819  0.87437  1.0000
  P   P1913     1.0  0.66680  0.29516  0.87330  1.0000
  P   P1914     1.0  0.66528  0.30748  0.94515  1.0000
  P   P1915     1.0  0.61907  0.29303  0.94436  1.0000
  P   P1916     1.0  0.61796  0.30596  0.87646  1.0000
  P   P1917     1.0  0.60906  0.29284  0.87476  1.0000
  P   P1918     1.0  0.60801  0.30530  0.94736  1.0000
  P   P1919     1.0  0.56163  0.29067  0.94634  1.0000
  P   P1920     1.0  0.56110  0.30376  0.87826  1.0000
  P   P1921     1.0  0.55188  0.29055  0.87655  1.0000
  P   P1922     1.0  0.55136  0.30318  0.94923  1.0000
  P   P1923     1.0  0.50481  0.28837  0.94833  1.0000
  P   P1924     1.0  0.50455  0.30150  0.87969  1.0000
  P   P1925     1.0  0.49506  0.28820  0.87845  1.0000
  P   P1926     1.0  0.49483  0.30085  0.95082  1.0000
  P   P1927     1.0  0.44817  0.28592  0.95049  1.0000
  P   P1928     1.0  0.44827  0.29922  0.88127  1.0000
  P   P1929     1.0  0.43862  0.28587  0.88067  1.0000
  P   P1930     1.0  0.43861  0.29853  0.95246  1.0000
  P   P1931     1.0  0.39204  0.28371  0.95212  1.0000
  P   P1932     1.0  0.39242  0.29713  0.88238  1.0000
  P   P1933     1.0  0.38282  0.28379  0.88228  1.0000
  P   P1934     1.0  0.38303  0.29665  0.95336  1.0000
  P   P1935     1.0  0.33661  0.28198  0.95252  1.0000
  P   P1936     1.0  0.33711  0.29542  0.88230  1.0000
  P   P1937     1.0  0.32765  0.28213  0.88254  1.0000
  P   P1938     1.0  0.32805  0.29525  0.95298  1.0000
  P   P1939     1.0  0.28174  0.28068  0.95190  1.0000
  P   P1940     1.0  0.28218  0.29410  0.88151  1.0000
  P   P1941     1.0  0.27288  0.28085  0.88185  1.0000
  P   P1942     1.0  0.27345  0.29417  0.95207  1.0000
  P   P1943     1.0  0.22721  0.27964  0.95113  1.0000
  P   P1944     1.0  0.22753  0.29303  0.88072  1.0000
  P   P1945     1.0  0.21833  0.27982  0.88109  1.0000
  P   P1946     1.0  0.21909  0.29327  0.95125  1.0000
  P   P1947     1.0  0.17287  0.27874  0.95060  1.0000
  P   P1948     1.0  0.17307  0.29211  0.88014  1.0000
  P   P1949     1.0  0.16395  0.27892  0.88058  1.0000
  P   P1950     1.0  0.16484  0.29246  0.95067  1.0000
  P   P1951     1.0  0.11863  0.27793  0.95028  1.0000
  P   P1952     1.0  0.11874  0.29128  0.87975  1.0000
  P   P1953     1.0  0.10967  0.27810  0.88029  1.0000
  P   P1954     1.0  0.11064  0.29170  0.95029  1.0000
  P   P1955     1.0  0.06444  0.27717  0.95008  1.0000
  P   P1956     1.0  0.06447  0.29049  0.87947  1.0000
  P   P1957     1.0  0.05543  0.27732  0.88010  1.0000
  P   P1958     1.0  0.05646  0.29096  0.94999  1.0000
  P   P1959     1.0  0.01027  0.27643  0.94991  1.0000
  P   P1960     1.0  0.01021  0.28972  0.87919  1.0000
  P   P1961     1.0  0.00119  0.27656  0.87995  1.0000
  P   P1962     1.0  0.00227  0.29023  0.94971  1.0000
  P   P1963     1.0  0.95608  0.27570  0.94972  1.0000
  P   P1964     1.0  0.95593  0.28895  0.87884  1.0000
  P   P1965     1.0  0.94691  0.27579  0.87977  1.0000
  P   P1966     1.0  0.94802  0.28947  0.94933  1.0000
  P   P1967     1.0  0.90183  0.27496  0.94942  1.0000
  P   P1968     1.0  0.90156  0.28813  0.87829  1.0000
  P   P1969     1.0  0.89253  0.27497  0.87945  1.0000
  P   P1970     1.0  0.89364  0.28866  0.94873  1.0000
  P   P1971     1.0  0.84747  0.27417  0.94884  1.0000
  P   P1972     1.0  0.84696  0.28722  0.87738  1.0000
  P   P1973     1.0  0.83796  0.27406  0.87884  1.0000
  P   P1974     1.0  0.83896  0.28773  0.94775  1.0000
  P   P1975     1.0  0.79281  0.27327  0.94776  1.0000
  P   P1976     1.0  0.79191  0.28611  0.87600  1.0000
  P   P1977     1.0  0.78301  0.27299  0.87772  1.0000
  P   P1978     1.0  0.78366  0.28653  0.94629  1.0000
  P   P1979     1.0  0.73754  0.27211  0.94599  1.0000
  P   P1980     1.0  0.73600  0.28468  0.87434  1.0000
  P   P1981     1.0  0.72735  0.27164  0.87595  1.0000
  P   P1982     1.0  0.72725  0.28487  0.94463  1.0000
  P   P1983     1.0  0.68117  0.27049  0.94396  1.0000
  P   P1984     1.0  0.67894  0.28282  0.87314  1.0000
  P   P1985     1.0  0.67063  0.26988  0.87398  1.0000
  P   P1986     1.0  0.66944  0.28261  0.94359  1.0000
  P   P1987     1.0  0.62336  0.26821  0.94269  1.0000
  P   P1988     1.0  0.62104  0.28057  0.87333  1.0000
  P   P1989     1.0  0.61292  0.26769  0.87275  1.0000
  P   P1990     1.0  0.61092  0.27999  0.94399  1.0000
  P   P1991     1.0  0.56479  0.26547  0.94283  1.0000
  P   P1992     1.0  0.56327  0.27819  0.87457  1.0000
  P   P1993     1.0  0.55500  0.26525  0.87281  1.0000
  P   P1994     1.0  0.55318  0.27753  0.94543  1.0000
  P   P1995     1.0  0.50690  0.26283  0.94403  1.0000
  P   P1996     1.0  0.50606  0.27582  0.87607  1.0000
  P   P1997     1.0  0.49742  0.26277  0.87403  1.0000
  P   P1998     1.0  0.49611  0.27515  0.94712  1.0000
  P   P1999     1.0  0.44960  0.26028  0.94636  1.0000
  P   P2000     1.0  0.44921  0.27343  0.87791  1.0000
  P   P2001     1.0  0.44014  0.26025  0.87641  1.0000
  P   P2002     1.0  0.43917  0.27262  0.94909  1.0000
  P   P2003     1.0  0.39255  0.25771  0.94915  1.0000
  P   P2004     1.0  0.39280  0.27110  0.88013  1.0000
  P   P2005     1.0  0.38339  0.25781  0.87924  1.0000
  P   P2006     1.0  0.38285  0.27033  0.95126  1.0000
  P   P2007     1.0  0.33632  0.25553  0.95087  1.0000
  P   P2008     1.0  0.33706  0.26907  0.88117  1.0000
  P   P2009     1.0  0.32756  0.25576  0.88081  1.0000
  P   P2010     1.0  0.32750  0.26860  0.95207  1.0000
  P   P2011     1.0  0.28109  0.25391  0.95128  1.0000
  P   P2012     1.0  0.28195  0.26747  0.88101  1.0000
  P   P2013     1.0  0.27253  0.25419  0.88106  1.0000
  P   P2014     1.0  0.27280  0.26734  0.95166  1.0000
  P   P2015     1.0  0.22646  0.25271  0.95088  1.0000
  P   P2016     1.0  0.22721  0.26623  0.88040  1.0000
  P   P2017     1.0  0.21792  0.25298  0.88061  1.0000
  P   P2018     1.0  0.21842  0.26633  0.95095  1.0000
  P   P2019     1.0  0.17212  0.25172  0.95044  1.0000
  P   P2020     1.0  0.17269  0.26520  0.87992  1.0000
  P   P2021     1.0  0.16351  0.25199  0.88021  1.0000
  P   P2022     1.0  0.16419  0.26546  0.95045  1.0000
  P   P2023     1.0  0.11791  0.25086  0.95021  1.0000
  P   P2024     1.0  0.11832  0.26430  0.87966  1.0000
  P   P2025     1.0  0.10924  0.25111  0.88003  1.0000
  P   P2026     1.0  0.11002  0.26467  0.95018  1.0000
  P   P2027     1.0  0.06376  0.25006  0.95014  1.0000
  P   P2028     1.0  0.06404  0.26348  0.87954  1.0000
  P   P2029     1.0  0.05503  0.25031  0.87998  1.0000
  P   P2030     1.0  0.05588  0.26392  0.95004  1.0000
  P   P2031     1.0  0.00963  0.24931  0.95013  1.0000
  P   P2032     1.0  0.00981  0.26269  0.87949  1.0000
  P   P2033     1.0  0.00085  0.24955  0.88000  1.0000
  P   P2034     1.0  0.00174  0.26319  0.94998  1.0000
  P   P2035     1.0  0.95549  0.24857  0.95016  1.0000
  P   P2036     1.0  0.95557  0.26193  0.87945  1.0000
  P   P2037     1.0  0.94666  0.24880  0.88005  1.0000
  P   P2038     1.0  0.94757  0.26246  0.94992  1.0000
  P   P2039     1.0  0.90132  0.24784  0.95018  1.0000
  P   P2040     1.0  0.90129  0.26116  0.87939  1.0000
  P   P2041     1.0  0.89242  0.24804  0.88009  1.0000
  P   P2042     1.0  0.89334  0.26173  0.94983  1.0000
  P   P2043     1.0  0.84709  0.24711  0.95016  1.0000
  P   P2044     1.0  0.84691  0.26036  0.87919  1.0000
  P   P2045     1.0  0.83807  0.24725  0.88008  1.0000
  P   P2046     1.0  0.83898  0.26095  0.94959  1.0000
  P   P2047     1.0  0.79273  0.24634  0.94997  1.0000
  P   P2048     1.0  0.79233  0.25947  0.87869  1.0000
  P   P2049     1.0  0.78354  0.24638  0.87986  1.0000
  P   P2050     1.0  0.78438  0.26008  0.94900  1.0000
  P   P2051     1.0  0.73814  0.24549  0.94934  1.0000
  P   P2052     1.0  0.73737  0.25842  0.87762  1.0000
  P   P2053     1.0  0.72868  0.24536  0.87916  1.0000
  P   P2054     1.0  0.72925  0.25899  0.94780  1.0000
  P   P2055     1.0  0.68305  0.24443  0.94788  1.0000
  P   P2056     1.0  0.68168  0.25706  0.87589  1.0000
  P   P2057     1.0  0.67323  0.24408  0.87762  1.0000
  P   P2058     1.0  0.67314  0.25747  0.94598  1.0000
  P   P2059     1.0  0.62696  0.24294  0.94555  1.0000
  P   P2060     1.0  0.62490  0.25524  0.87376  1.0000
  P   P2061     1.0  0.61680  0.24237  0.87519  1.0000
  P   P2062     1.0  0.61562  0.25529  0.94394  1.0000
  P   P2063     1.0  0.56946  0.24074  0.94308  1.0000
  P   P2064     1.0  0.56715  0.25296  0.87200  1.0000
  P   P2065     1.0  0.55929  0.24015  0.87263  1.0000
  P   P2066     1.0  0.55713  0.25257  0.94238  1.0000
  P   P2067     1.0  0.51098  0.23794  0.94139  1.0000
  P   P2068     1.0  0.50920  0.25046  0.87162  1.0000
  P   P2069     1.0  0.50121  0.23760  0.87103  1.0000
  P   P2070     1.0  0.49915  0.24989  0.94231  1.0000
  P   P2071     1.0  0.45293  0.23514  0.94158  1.0000
  P   P2072     1.0  0.45158  0.24795  0.87296  1.0000
  P   P2073     1.0  0.44324  0.23498  0.87160  1.0000
  P   P2074     1.0  0.44167  0.24729  0.94401  1.0000
  P   P2075     1.0  0.39525  0.23242  0.94428  1.0000
  P   P2076     1.0  0.39428  0.24542  0.87575  1.0000
  P   P2077     1.0  0.38553  0.23232  0.87451  1.0000
  P   P2078     1.0  0.38414  0.24458  0.94693  1.0000
  P   P2079     1.0  0.33760  0.22970  0.94771  1.0000
  P   P2080     1.0  0.33757  0.24301  0.87859  1.0000
  P   P2081     1.0  0.32841  0.22979  0.87775  1.0000
  P   P2082     1.0  0.32755  0.24226  0.94967  1.0000
  P   P2083     1.0  0.28106  0.22745  0.94968  1.0000
  P   P2084     1.0  0.28181  0.24100  0.87959  1.0000
  P   P2085     1.0  0.27243  0.22772  0.87947  1.0000
  P   P2086     1.0  0.27227  0.24060  0.95043  1.0000
  P   P2087     1.0  0.22586  0.22590  0.95008  1.0000
  P   P2088     1.0  0.22685  0.23949  0.87949  1.0000
  P   P2089     1.0  0.21742  0.22620  0.87974  1.0000
  P   P2090     1.0  0.21771  0.23940  0.95011  1.0000
  P   P2091     1.0  0.17138  0.22477  0.94979  1.0000
  P   P2092     1.0  0.17227  0.23833  0.87910  1.0000
  P   P2093     1.0  0.16289  0.22505  0.87944  1.0000
  P   P2094     1.0  0.16346  0.23844  0.94964  1.0000
  P   P2095     1.0  0.11717  0.22384  0.94953  1.0000
  P   P2096     1.0  0.11789  0.23735  0.87887  1.0000
  P   P2097     1.0  0.10858  0.22410  0.87925  1.0000
  P   P2098     1.0  0.10932  0.23759  0.94940  1.0000
  P   P2099     1.0  0.06306  0.22301  0.94947  1.0000
  P   P2100     1.0  0.06362  0.23649  0.87884  1.0000
  P   P2101     1.0  0.05438  0.22326  0.87925  1.0000
  P   P2102     1.0  0.05521  0.23681  0.94934  1.0000
  P   P2103     1.0  0.00897  0.22224  0.94954  1.0000
  P   P2104     1.0  0.00943  0.23568  0.87889  1.0000
  P   P2105     1.0  0.00025  0.22247  0.87934  1.0000
  P   P2106     1.0  0.00113  0.23607  0.94937  1.0000
  P   P2107     1.0  0.95490  0.22149  0.94965  1.0000
  P   P2108     1.0  0.95526  0.23492  0.87899  1.0000
  P   P2109     1.0  0.94614  0.22172  0.87948  1.0000
  P   P2110     1.0  0.94703  0.23535  0.94946  1.0000
  P   P2111     1.0  0.90080  0.22077  0.94978  1.0000
  P   P2112     1.0  0.90107  0.23416  0.87912  1.0000
  P   P2113     1.0  0.89201  0.22099  0.87962  1.0000
  P   P2114     1.0  0.89290  0.23463  0.94956  1.0000
  P   P2115     1.0  0.84667  0.22004  0.94991  1.0000
  P   P2116     1.0  0.84683  0.23341  0.87926  1.0000
  P   P2117     1.0  0.83784  0.22025  0.87978  1.0000
  P   P2118     1.0  0.83870  0.23390  0.94968  1.0000
  P   P2119     1.0  0.79247  0.21930  0.95004  1.0000
  P   P2120     1.0  0.79248  0.23262  0.87936  1.0000
  P   P2121     1.0  0.78357  0.21949  0.87991  1.0000
  P   P2122     1.0  0.78439  0.23315  0.94974  1.0000
  P   P2123     1.0  0.73814  0.21853  0.95009  1.0000
  P   P2124     1.0  0.73794  0.23175  0.87926  1.0000
  P   P2125     1.0  0.72914  0.21866  0.87994  1.0000
  P   P2126     1.0  0.72987  0.23232  0.94957  1.0000
  P   P2127     1.0  0.68360  0.21769  0.94986  1.0000
  P   P2128     1.0  0.68307  0.23074  0.87866  1.0000
  P   P2129     1.0  0.67441  0.21769  0.87963  1.0000
  P   P2130     1.0  0.67493  0.23132  0.94883  1.0000
  P   P2131     1.0  0.62865  0.21667  0.94897  1.0000
  P   P2132     1.0  0.62759  0.22943  0.87714  1.0000
  P   P2133     1.0  0.61917  0.21646  0.87858  1.0000
  P   P2134     1.0  0.61915  0.22995  0.94714  1.0000
  P   P2135     1.0  0.57288  0.21528  0.94700  1.0000
  P   P2136     1.0  0.57110  0.22766  0.87451  1.0000
  P   P2137     1.0  0.56298  0.21478  0.87642  1.0000
  P   P2138     1.0  0.56194  0.22786  0.94447  1.0000
  P   P2139     1.0  0.51568  0.21318  0.94405  1.0000
  P   P2140     1.0  0.51351  0.22535  0.87146  1.0000
  P   P2141     1.0  0.50556  0.21252  0.87337  1.0000
  P   P2142     1.0  0.50356  0.22510  0.94155  1.0000
  P   P2143     1.0  0.45732  0.21037  0.94134  1.0000
  P   P2144     1.0  0.45539  0.22275  0.86977  1.0000
  P   P2145     1.0  0.44726  0.20985  0.87093  1.0000
  P   P2146     1.0  0.44546  0.22229  0.94024  1.0000
  P   P2147     1.0  0.39920  0.20754  0.94112  1.0000
  P   P2148     1.0  0.39739  0.22012  0.87096  1.0000
  P   P2149     1.0  0.38899  0.20713  0.87123  1.0000
  P   P2150     1.0  0.38763  0.21953  0.94194  1.0000
  P   P2151     1.0  0.34126  0.20473  0.94385  1.0000
  P   P2152     1.0  0.33968  0.21749  0.87444  1.0000
  P   P2153     1.0  0.33100  0.20441  0.87421  1.0000
  P   P2154     1.0  0.32957  0.21668  0.94555  1.0000
  P   P2155     1.0  0.28311  0.20188  0.94713  1.0000
  P   P2156     1.0  0.28262  0.21499  0.87730  1.0000
  P   P2157     1.0  0.27354  0.20179  0.87718  1.0000
  P   P2158     1.0  0.27255  0.21426  0.94828  1.0000
  P   P2159     1.0  0.22611  0.19953  0.94898  1.0000
  P   P2160     1.0  0.22673  0.21299  0.87824  1.0000
  P   P2161     1.0  0.21728  0.19969  0.87873  1.0000
  P   P2162     1.0  0.21710  0.21261  0.94894  1.0000
  P   P2163     1.0  0.17076  0.19800  0.94917  1.0000
  P   P2164     1.0  0.17176  0.21155  0.87817  1.0000
  P   P2165     1.0  0.16214  0.19821  0.87881  1.0000
  P   P2166     1.0  0.16254  0.21146  0.94871  1.0000
  P   P2167     1.0  0.11628  0.19693  0.94896  1.0000
  P   P2168     1.0  0.11725  0.21046  0.87795  1.0000
  P   P2169     1.0  0.10761  0.19711  0.87862  1.0000
  P   P2170     1.0  0.10832  0.21053  0.94845  1.0000
  P   P2171     1.0  0.06210  0.19604  0.94888  1.0000
  P   P2172     1.0  0.06296  0.20954  0.87790  1.0000
  P   P2173     1.0  0.05333  0.19620  0.87858  1.0000
  P   P2174     1.0  0.05422  0.20970  0.94838  1.0000
  P   P2175     1.0  0.00802  0.19524  0.94896  1.0000
  P   P2176     1.0  0.00878  0.20871  0.87799  1.0000
  P   P2177     1.0  0.99919  0.19538  0.87869  1.0000
  P   P2178     1.0  0.00016  0.20894  0.94845  1.0000
  P   P2179     1.0  0.95398  0.19449  0.94912  1.0000
  P   P2180     1.0  0.95466  0.20793  0.87814  1.0000
  P   P2181     1.0  0.94510  0.19462  0.87886  1.0000
  P   P2182     1.0  0.94611  0.20820  0.94858  1.0000
  P   P2183     1.0  0.89993  0.19376  0.94929  1.0000
  P   P2184     1.0  0.90055  0.20718  0.87831  1.0000
  P   P2185     1.0  0.89104  0.19388  0.87904  1.0000
  P   P2186     1.0  0.89205  0.20749  0.94873  1.0000
  P   P2187     1.0  0.84588  0.19304  0.94944  1.0000
  P   P2188     1.0  0.84642  0.20644  0.87848  1.0000
  P   P2189     1.0  0.83697  0.19315  0.87921  1.0000
  P   P2190     1.0  0.83797  0.20677  0.94889  1.0000
  P   P2191     1.0  0.79180  0.19232  0.94959  1.0000
  P   P2192     1.0  0.79225  0.20569  0.87865  1.0000
  P   P2193     1.0  0.78287  0.19243  0.87937  1.0000
  P   P2194     1.0  0.78384  0.20605  0.94905  1.0000
  P   P2195     1.0  0.73766  0.19158  0.94970  1.0000
  P   P2196     1.0  0.73799  0.20492  0.87880  1.0000
  P   P2197     1.0  0.72871  0.19168  0.87949  1.0000
  P   P2198     1.0  0.72961  0.20531  0.94917  1.0000
  P   P2199     1.0  0.68342  0.19081  0.94974  1.0000
  P   P2200     1.0  0.68355  0.20407  0.87883  1.0000
  P   P2201     1.0  0.67440  0.19088  0.87952  1.0000
  P   P2202     1.0  0.67519  0.20449  0.94914  1.0000
  P   P2203     1.0  0.62898  0.18995  0.94958  1.0000
  P   P2204     1.0  0.62881  0.20308  0.87849  1.0000
  P   P2205     1.0  0.61983  0.18994  0.87930  1.0000
  P   P2206     1.0  0.62043  0.20353  0.94871  1.0000
  P   P2207     1.0  0.57418  0.18894  0.94900  1.0000
  P   P2208     1.0  0.57354  0.20182  0.87742  1.0000
  P   P2209     1.0  0.56477  0.18875  0.87859  1.0000
  P   P2210     1.0  0.56500  0.20225  0.94750  1.0000
  P   P2211     1.0  0.51871  0.18761  0.94774  1.0000
  P   P2212     1.0  0.51729  0.20008  0.87525  1.0000
  P   P2213     1.0  0.50881  0.18710  0.87715  1.0000
  P   P2214     1.0  0.50817  0.20029  0.94523  1.0000
  P   P2215     1.0  0.46184  0.18559  0.94560  1.0000
  P   P2216     1.0  0.45978  0.19777  0.87234  1.0000
  P   P2217     1.0  0.45149  0.18484  0.87496  1.0000
  P   P2218     1.0  0.44980  0.19750  0.94235  1.0000
  P   P2219     1.0  0.40343  0.18278  0.94312  1.0000
  P   P2220     1.0  0.40145  0.19509  0.87059  1.0000
  P   P2221     1.0  0.39301  0.18210  0.87280  1.0000
  P   P2222     1.0  0.39155  0.19464  0.94100  1.0000
  P   P2223     1.0  0.34524  0.17996  0.94308  1.0000
  P   P2224     1.0  0.34318  0.19237  0.87173  1.0000
  P   P2225     1.0  0.33454  0.17931  0.87319  1.0000
  P   P2226     1.0  0.33339  0.19178  0.94262  1.0000
  P   P2227     1.0  0.28702  0.17709  0.94535  1.0000
  P   P2228     1.0  0.28519  0.18964  0.87485  1.0000
  P   P2229     1.0  0.27632  0.17652  0.87560  1.0000
  P   P2230     1.0  0.27493  0.18883  0.94579  1.0000
  P   P2231     1.0  0.22849  0.17415  0.94790  1.0000
  P   P2232     1.0  0.22780  0.18708  0.87706  1.0000
  P   P2233     1.0  0.21852  0.17385  0.87786  1.0000
  P   P2234     1.0  0.21743  0.18631  0.94778  1.0000
  P   P2235     1.0  0.17105  0.17175  0.94900  1.0000
  P   P2236     1.0  0.17161  0.18509  0.87765  1.0000
  P   P2237     1.0  0.16192  0.17173  0.87869  1.0000
  P   P2238     1.0  0.16175  0.18467  0.94814  1.0000
  P   P2239     1.0  0.11547  0.17022  0.94892  1.0000
  P   P2240     1.0  0.11651  0.18369  0.87748  1.0000
  P   P2241     1.0  0.10661  0.17028  0.87851  1.0000
  P   P2242     1.0  0.10711  0.18355  0.94791  1.0000
  P   P2243     1.0  0.06089  0.16916  0.94871  1.0000
  P   P2244     1.0  0.06199  0.18265  0.87735  1.0000
  P   P2245     1.0  0.05202  0.16921  0.87832  1.0000
  P   P2246     1.0  0.05286  0.18265  0.94777  1.0000
  P   P2247     1.0  0.00668  0.16830  0.94869  1.0000
  P   P2248     1.0  0.00774  0.18177  0.87740  1.0000
  P   P2249     1.0  0.99775  0.16833  0.87832  1.0000
  P   P2250     1.0  0.99876  0.18184  0.94782  1.0000
  P   P2251     1.0  0.95260  0.16752  0.94881  1.0000
  P   P2252     1.0  0.95360  0.18097  0.87756  1.0000
  P   P2253     1.0  0.94363  0.16754  0.87845  1.0000
  P   P2254     1.0  0.94471  0.18109  0.94796  1.0000
  P   P2255     1.0  0.89857  0.16678  0.94899  1.0000
  P   P2256     1.0  0.89952  0.18021  0.87775  1.0000
  P   P2257     1.0  0.88957  0.16679  0.87864  1.0000
  P   P2258     1.0  0.89069  0.18037  0.94813  1.0000
  P   P2259     1.0  0.84455  0.16606  0.94918  1.0000
  P   P2260     1.0  0.84546  0.17948  0.87793  1.0000
  P   P2261     1.0  0.83554  0.16606  0.87882  1.0000
  P   P2262     1.0  0.83666  0.17965  0.94830  1.0000
  P   P2263     1.0  0.79053  0.16535  0.94935  1.0000
  P   P2264     1.0  0.79140  0.17875  0.87809  1.0000
  P   P2265     1.0  0.78152  0.16534  0.87899  1.0000
  P   P2266     1.0  0.78263  0.17894  0.94845  1.0000
  P   P2267     1.0  0.73649  0.16463  0.94948  1.0000
  P   P2268     1.0  0.73730  0.17801  0.87822  1.0000
  P   P2269     1.0  0.72748  0.16462  0.87912  1.0000
  P   P2270     1.0  0.72856  0.17822  0.94857  1.0000
  P   P2271     1.0  0.68242  0.16389  0.94956  1.0000
  P   P2272     1.0  0.68313  0.17724  0.87830  1.0000
  P   P2273     1.0  0.67339  0.16388  0.87920  1.0000
  P   P2274     1.0  0.67440  0.17747  0.94863  1.0000
  P   P2275     1.0  0.62825  0.16312  0.94953  1.0000
  P   P2276     1.0  0.62881  0.17641  0.87824  1.0000
  P   P2277     1.0  0.61918  0.16308  0.87916  1.0000
  P   P2278     1.0  0.62009  0.17665  0.94854  1.0000
  P   P2279     1.0  0.57393  0.16226  0.94933  1.0000
  P   P2280     1.0  0.57423  0.17544  0.87792  1.0000
  P   P2281     1.0  0.56474  0.16216  0.87892  1.0000
  P   P2282     1.0  0.56549  0.17569  0.94818  1.0000
  P   P2283     1.0  0.51928  0.16125  0.94886  1.0000
  P   P2284     1.0  0.51914  0.17421  0.87716  1.0000
  P   P2285     1.0  0.50985  0.16099  0.87837  1.0000
  P   P2286     1.0  0.51029  0.17444  0.94736  1.0000
  P   P2287     1.0  0.46403  0.15994  0.94804  1.0000
  P   P2288     1.0  0.46312  0.17252  0.87578  1.0000
  P   P2289     1.0  0.45408  0.15938  0.87743  1.0000
  P   P2290     1.0  0.45379  0.17255  0.94591  1.0000
  P   P2291     1.0  0.40745  0.15798  0.94684  1.0000
  P   P2292     1.0  0.40573  0.17022  0.87401  1.0000
  P   P2293     1.0  0.39690  0.15715  0.87628  1.0000
  P   P2294     1.0  0.39549  0.16979  0.94408  1.0000
  P   P2295     1.0  0.34906  0.15516  0.94528  1.0000
  P   P2296     1.0  0.34724  0.16749  0.87309  1.0000
  P   P2297     1.0  0.33838  0.15439  0.87507  1.0000
  P   P2298     1.0  0.33711  0.16693  0.94351  1.0000
  P   P2299     1.0  0.29074  0.15234  0.94548  1.0000
  P   P2300     1.0  0.28877  0.16469  0.87412  1.0000
  P   P2301     1.0  0.27975  0.15154  0.87559  1.0000
  P   P2302     1.0  0.27861  0.16399  0.94485  1.0000
  P   P2303     1.0  0.23222  0.14943  0.94730  1.0000
  P   P2304     1.0  0.23057  0.16190  0.87626  1.0000
  P   P2305     1.0  0.22129  0.14868  0.87741  1.0000
  P   P2306     1.0  0.21982  0.16097  0.94689  1.0000
  P   P2307     1.0  0.17339  0.14645  0.94909  1.0000
  P   P2308     1.0  0.17283  0.15930  0.87771  1.0000
  P   P2309     1.0  0.16318  0.14597  0.87894  1.0000
  P   P2310     1.0  0.16196  0.15843  0.94807  1.0000
  P   P2311     1.0  0.11562  0.14402  0.94949  1.0000
  P   P2312     1.0  0.11630  0.15729  0.87776  1.0000
  P   P2313     1.0  0.10630  0.14386  0.87909  1.0000
  P   P2314     1.0  0.10609  0.15681  0.94803  1.0000
  P   P2315     1.0  0.05985  0.14249  0.94911  1.0000
  P   P2316     1.0  0.06101  0.15591  0.87741  1.0000
  P   P2317     1.0  0.05084  0.14242  0.87863  1.0000
  P   P2318     1.0  0.05135  0.15570  0.94770  1.0000
  P   P2319     1.0  0.00517  0.14143  0.94879  1.0000
  P   P2320     1.0  0.00644  0.15489  0.87725  1.0000
  P   P2321     1.0  0.99618  0.14138  0.87832  1.0000
  P   P2322     1.0  0.99707  0.15482  0.94758  1.0000
  P   P2323     1.0  0.95092  0.14058  0.94871  1.0000
  P   P2324     1.0  0.95218  0.15404  0.87730  1.0000
  P   P2325     1.0  0.94190  0.14052  0.87826  1.0000
  P   P2326     1.0  0.94296  0.15403  0.94764  1.0000
  P   P2327     1.0  0.89683  0.13981  0.94880  1.0000
  P   P2328     1.0  0.89807  0.15326  0.87746  1.0000
  P   P2329     1.0  0.88778  0.13974  0.87837  1.0000
  P   P2330     1.0  0.88893  0.15329  0.94779  1.0000
  P   P2331     1.0  0.84280  0.13907  0.94898  1.0000
  P   P2332     1.0  0.84401  0.15252  0.87765  1.0000
  P   P2333     1.0  0.83375  0.13900  0.87854  1.0000
  P   P2334     1.0  0.83492  0.15257  0.94798  1.0000
  P   P2335     1.0  0.78880  0.13835  0.94917  1.0000
  P   P2336     1.0  0.78999  0.15179  0.87783  1.0000
  P   P2337     1.0  0.77974  0.13828  0.87873  1.0000
  P   P2338     1.0  0.78092  0.15186  0.94815  1.0000
  P   P2339     1.0  0.73481  0.13764  0.94934  1.0000
  P   P2340     1.0  0.73596  0.15106  0.87798  1.0000
  P   P2341     1.0  0.72575  0.13757  0.87890  1.0000
  P   P2342     1.0  0.72692  0.15115  0.94830  1.0000
  P   P2343     1.0  0.68081  0.13693  0.94947  1.0000
  P   P2344     1.0  0.68192  0.15033  0.87808  1.0000
  P   P2345     1.0  0.67175  0.13685  0.87901  1.0000
  P   P2346     1.0  0.67289  0.15043  0.94838  1.0000
  P   P2347     1.0  0.62677  0.13619  0.94953  1.0000
  P   P2348     1.0  0.62782  0.14957  0.87809  1.0000
  P   P2349     1.0  0.61771  0.13610  0.87905  1.0000
  P   P2350     1.0  0.61880  0.14967  0.94838  1.0000
  P   P2351     1.0  0.57267  0.13542  0.94947  1.0000
  P   P2352     1.0  0.57361  0.14874  0.87796  1.0000
  P   P2353     1.0  0.56357  0.13530  0.87897  1.0000
  P   P2354     1.0  0.56456  0.14884  0.94823  1.0000
  P   P2355     1.0  0.51841  0.13456  0.94924  1.0000
  P   P2356     1.0  0.51915  0.14779  0.87761  1.0000
  P   P2357     1.0  0.50922  0.13438  0.87870  1.0000
  P   P2358     1.0  0.51004  0.14787  0.94786  1.0000
  P   P2359     1.0  0.46387  0.13355  0.94880  1.0000
  P   P2360     1.0  0.46422  0.14659  0.87697  1.0000
  P   P2361     1.0  0.45444  0.13322  0.87818  1.0000
  P   P2362     1.0  0.45496  0.14660  0.94720  1.0000
  P   P2363     1.0  0.40873  0.13223  0.94813  1.0000
  P   P2364     1.0  0.40840  0.14494  0.87607  1.0000
  P   P2365     1.0  0.39882  0.13164  0.87745  1.0000
  P   P2366     1.0  0.39867  0.14473  0.94628  1.0000
  P   P2367     1.0  0.35234  0.13028  0.94741  1.0000
  P   P2368     1.0  0.35116  0.14268  0.87533  1.0000
  P   P2369     1.0  0.34175  0.12944  0.87688  1.0000
  P   P2370     1.0  0.34053  0.14201  0.94550  1.0000
  P   P2371     1.0  0.29410  0.12750  0.94689  1.0000
  P   P2372     1.0  0.29264  0.13992  0.87537  1.0000
  P   P2373     1.0  0.28329  0.12669  0.87674  1.0000
  P   P2374     1.0  0.28211  0.13918  0.94577  1.0000
  P   P2375     1.0  0.23570  0.12469  0.94732  1.0000
  P   P2376     1.0  0.23402  0.13707  0.87628  1.0000
  P   P2377     1.0  0.22456  0.12380  0.87743  1.0000
  P   P2378     1.0  0.22332  0.13619  0.94683  1.0000
  P   P2379     1.0  0.17689  0.12173  0.94892  1.0000
  P   P2380     1.0  0.17558  0.13422  0.87779  1.0000
  P   P2381     1.0  0.16585  0.12089  0.87896  1.0000
  P   P2382     1.0  0.16423  0.13314  0.94810  1.0000
  P   P2383     1.0  0.11781  0.11875  0.95014  1.0000
  P   P2384     1.0  0.11753  0.13160  0.87865  1.0000
  P   P2385     1.0  0.10750  0.11817  0.87992  1.0000
  P   P2386     1.0  0.10616  0.13061  0.94870  1.0000
  P   P2387     1.0  0.05985  0.11631  0.95011  1.0000
  P   P2388     1.0  0.06071  0.12956  0.87823  1.0000
  P   P2389     1.0  0.05044  0.11606  0.87965  1.0000
  P   P2390     1.0  0.05017  0.12900  0.94831  1.0000
  P   P2391     1.0  0.00396  0.11477  0.94947  1.0000
  P   P2392     1.0  0.00527  0.12818  0.87765  1.0000
  P   P2393     1.0  0.99487  0.11463  0.87892  1.0000
  P   P2394     1.0  0.99537  0.12790  0.94782  1.0000
  P   P2395     1.0  0.94921  0.11371  0.94897  1.0000
  P   P2396     1.0  0.95062  0.12716  0.87736  1.0000
  P   P2397     1.0  0.94017  0.11359  0.87845  1.0000
  P   P2398     1.0  0.94106  0.12702  0.94760  1.0000
  P   P2399     1.0  0.89493  0.11285  0.94879  1.0000
  P   P2400     1.0  0.89635  0.12632  0.87734  1.0000
  P   P2401     1.0  0.88588  0.11274  0.87829  1.0000
  P   P2402     1.0  0.88695  0.12625  0.94761  1.0000
  P   P2403     1.0  0.84083  0.11208  0.94883  1.0000
  P   P2404     1.0  0.84225  0.12555  0.87745  1.0000
  P   P2405     1.0  0.83177  0.11198  0.87834  1.0000
  P   P2406     1.0  0.83292  0.12551  0.94774  1.0000
  P   P2407     1.0  0.78682  0.11135  0.94898  1.0000
  P   P2408     1.0  0.78821  0.12481  0.87764  1.0000
  P   P2409     1.0  0.77775  0.11125  0.87850  1.0000
  P   P2410     1.0  0.77893  0.12480  0.94793  1.0000
  P   P2411     1.0  0.73283  0.11064  0.94917  1.0000
  P   P2412     1.0  0.73421  0.12409  0.87782  1.0000
  P   P2413     1.0  0.72376  0.11053  0.87868  1.0000
  P   P2414     1.0  0.72496  0.12409  0.94811  1.0000
  P   P2415     1.0  0.67886  0.10993  0.94934  1.0000
  P   P2416     1.0  0.68022  0.12337  0.87797  1.0000
  P   P2417     1.0  0.66979  0.10982  0.87885  1.0000
  P   P2418     1.0  0.67098  0.12338  0.94825  1.0000
  P   P2419     1.0  0.62488  0.10921  0.94947  1.0000
  P   P2420     1.0  0.62621  0.12264  0.87805  1.0000
  P   P2421     1.0  0.61582  0.10910  0.87896  1.0000
  P   P2422     1.0  0.61698  0.12265  0.94833  1.0000
  P   P2423     1.0  0.57088  0.10847  0.94952  1.0000
  P   P2424     1.0  0.57216  0.12188  0.87804  1.0000
  P   P2425     1.0  0.56181  0.10835  0.87898  1.0000
  P   P2426     1.0  0.56292  0.12189  0.94830  1.0000
  P   P2427     1.0  0.51680  0.10770  0.94945  1.0000
  P   P2428     1.0  0.51801  0.12106  0.87787  1.0000
  P   P2429     1.0  0.50771  0.10754  0.87887  1.0000
  P   P2430     1.0  0.50872  0.12105  0.94812  1.0000
  P   P2431     1.0  0.46259  0.10684  0.94921  1.0000
  P   P2432     1.0  0.46365  0.12011  0.87750  1.0000
  P   P2433     1.0  0.45341  0.10662  0.87857  1.0000
  P   P2434     1.0  0.45424  0.12006  0.94773  1.0000
  P   P2435     1.0  0.40809  0.10582  0.94875  1.0000
  P   P2436     1.0  0.40883  0.11893  0.87689  1.0000
  P   P2437     1.0  0.39870  0.10546  0.87804  1.0000
  P   P2438     1.0  0.39920  0.11877  0.94711  1.0000
  P   P2439     1.0  0.35300  0.10448  0.94809  1.0000
  P   P2440     1.0  0.35315  0.11731  0.87619  1.0000
  P   P2441     1.0  0.34315  0.10389  0.87735  1.0000
  P   P2442     1.0  0.34298  0.11688  0.94643  1.0000
  P   P2443     1.0  0.29668  0.10252  0.94754  1.0000
  P   P2444     1.0  0.29603  0.11508  0.87613  1.0000
  P   P2445     1.0  0.28614  0.10170  0.87705  1.0000
  P   P2446     1.0  0.28497  0.11418  0.94637  1.0000
  P   P2447     1.0  0.23857  0.09977  0.94766  1.0000
  P   P2448     1.0  0.23757  0.11233  0.87680  1.0000
  P   P2449     1.0  0.22775  0.09897  0.87756  1.0000
  P   P2450     1.0  0.22663  0.11141  0.94719  1.0000
  P   P2451     1.0  0.18021  0.09700  0.94858  1.0000
  P   P2452     1.0  0.17886  0.10945  0.87787  1.0000
  P   P2453     1.0  0.16900  0.09608  0.87871  1.0000
  P   P2454     1.0  0.16763  0.10840  0.94827  1.0000
  P   P2455     1.0  0.12118  0.09401  0.95009  1.0000
  P   P2456     1.0  0.12018  0.10657  0.87912  1.0000
  P   P2457     1.0  0.11010  0.09314  0.88013  1.0000
  P   P2458     1.0  0.10831  0.10534  0.94919  1.0000
  P   P2459     1.0  0.06190  0.09103  0.95100  1.0000
  P   P2460     1.0  0.06188  0.10391  0.87955  1.0000
  P   P2461     1.0  0.05159  0.09042  0.88075  1.0000
  P   P2462     1.0  0.05014  0.10284  0.94941  1.0000
  P   P2463     1.0  0.00385  0.08860  0.95074  1.0000
  P   P2464     1.0  0.00488  0.10186  0.87880  1.0000
  P   P2465     1.0  0.99443  0.08830  0.88022  1.0000
  P   P2466     1.0  0.99409  0.10123  0.94875  1.0000
  P   P2467     1.0  0.94789  0.08704  0.94987  1.0000
  P   P2468     1.0  0.94933  0.10045  0.87797  1.0000
  P   P2469     1.0  0.93880  0.08687  0.87928  1.0000
  P   P2470     1.0  0.93924  0.10013  0.94805  1.0000
  P   P2471     1.0  0.89310  0.08597  0.94919  1.0000
  P   P2472     1.0  0.89463  0.09943  0.87752  1.0000
  P   P2473     1.0  0.88406  0.08583  0.87862  1.0000
  P   P2474     1.0  0.88492  0.09926  0.94769  1.0000
  P   P2475     1.0  0.83880  0.08512  0.94889  1.0000
  P   P2476     1.0  0.84034  0.09859  0.87740  1.0000
  P   P2477     1.0  0.82975  0.08499  0.87835  1.0000
  P   P2478     1.0  0.83081  0.09848  0.94763  1.0000
  P   P2479     1.0  0.78471  0.08435  0.94886  1.0000
  P   P2480     1.0  0.78624  0.09783  0.87747  1.0000
  P   P2481     1.0  0.77565  0.08423  0.87834  1.0000
  P   P2482     1.0  0.77680  0.09775  0.94773  1.0000
  P   P2483     1.0  0.73071  0.08362  0.94898  1.0000
  P   P2484     1.0  0.73222  0.09710  0.87763  1.0000
  P   P2485     1.0  0.72164  0.08350  0.87847  1.0000
  P   P2486     1.0  0.72283  0.09704  0.94790  1.0000
  P   P2487     1.0  0.67674  0.08291  0.94916  1.0000
  P   P2488     1.0  0.67824  0.09638  0.87781  1.0000
  P   P2489     1.0  0.66767  0.08279  0.87865  1.0000
  P   P2490     1.0  0.66887  0.09633  0.94809  1.0000
  P   P2491     1.0  0.62278  0.08220  0.94934  1.0000
  P   P2492     1.0  0.62427  0.09567  0.87796  1.0000
  P   P2493     1.0  0.61372  0.08208  0.87881  1.0000
  P   P2494     1.0  0.61492  0.09562  0.94823  1.0000
  P   P2495     1.0  0.56882  0.08148  0.94947  1.0000
  P   P2496     1.0  0.57029  0.09494  0.87804  1.0000
  P   P2497     1.0  0.55977  0.08135  0.87892  1.0000
  P   P2498     1.0  0.56093  0.09489  0.94830  1.0000
  P   P2499     1.0  0.51483  0.08074  0.94951  1.0000
  P   P2500     1.0  0.51628  0.09418  0.87801  1.0000
  P   P2501     1.0  0.50578  0.08060  0.87893  1.0000
  P   P2502     1.0  0.50689  0.09413  0.94826  1.0000
  P   P2503     1.0  0.46078  0.07997  0.94942  1.0000
  P   P2504     1.0  0.46217  0.09336  0.87783  1.0000
  P   P2505     1.0  0.45170  0.07979  0.87880  1.0000
  P   P2506     1.0  0.45270  0.09328  0.94806  1.0000
  P   P2507     1.0  0.40658  0.07910  0.94915  1.0000
  P   P2508     1.0  0.40785  0.09241  0.87743  1.0000
  P   P2509     1.0  0.39743  0.07887  0.87847  1.0000
  P   P2510     1.0  0.39824  0.09227  0.94764  1.0000
  P   P2511     1.0  0.35209  0.07807  0.94865  1.0000
  P   P2512     1.0  0.35310  0.09123  0.87680  1.0000
  P   P2513     1.0  0.34275  0.07770  0.87788  1.0000
  P   P2514     1.0  0.34320  0.09095  0.94699  1.0000
  P   P2515     1.0  0.29700  0.07671  0.94795  1.0000
  P   P2516     1.0  0.29750  0.08963  0.87616  1.0000
  P   P2517     1.0  0.28722  0.07613  0.87716  1.0000
  P   P2518     1.0  0.28696  0.08902  0.94639  1.0000
  P   P2519     1.0  0.24067  0.07472  0.94745  1.0000
  P   P2520     1.0  0.24044  0.08743  0.87647  1.0000
  P   P2521     1.0  0.23022  0.07395  0.87699  1.0000
  P   P2522     1.0  0.22903  0.08635  0.94675  1.0000
  P   P2523     1.0  0.18265  0.07200  0.94794  1.0000
  P   P2524     1.0  0.18206  0.08470  0.87760  1.0000
  P   P2525     1.0  0.17188  0.07124  0.87788  1.0000
  P   P2526     1.0  0.17080  0.08362  0.94801  1.0000
  P   P2527     1.0  0.12439  0.06928  0.94934  1.0000
  P   P2528     1.0  0.12332  0.08182  0.87900  1.0000
  P   P2529     1.0  0.11315  0.06837  0.87952  1.0000
  P   P2530     1.0  0.11165  0.08061  0.94928  1.0000
  P   P2531     1.0  0.06521  0.06629  0.95091  1.0000
  P   P2532     1.0  0.06445  0.07891  0.88016  1.0000
  P   P2533     1.0  0.05413  0.06541  0.88098  1.0000
  P   P2534     1.0  0.05221  0.07757  0.95007  1.0000
  P   P2535     1.0  0.00581  0.06329  0.95170  1.0000
  P   P2536     1.0  0.00599  0.07623  0.88032  1.0000
  P   P2537     1.0  0.99553  0.06269  0.88144  1.0000
  P   P2538     1.0  0.99401  0.07509  0.95006  1.0000
  P   P2539     1.0  0.94773  0.06088  0.95130  1.0000
  P   P2540     1.0  0.94888  0.07415  0.87934  1.0000
  P   P2541     1.0  0.93833  0.06057  0.88076  1.0000
  P   P2542     1.0  0.93792  0.07348  0.94921  1.0000
  P   P2543     1.0  0.89173  0.05932  0.95027  1.0000
  P   P2544     1.0  0.89326  0.07274  0.87831  1.0000
  P   P2545     1.0  0.88266  0.05913  0.87964  1.0000
  P   P2546     1.0  0.88305  0.07237  0.94832  1.0000
  P   P2547     1.0  0.83691  0.05824  0.94943  1.0000
  P   P2548     1.0  0.83853  0.07171  0.87769  1.0000
  P   P2549     1.0  0.82789  0.05809  0.87882  1.0000
  P   P2550     1.0  0.82872  0.07150  0.94783  1.0000
  P   P2551     1.0  0.78261  0.05738  0.94900  1.0000
  P   P2552     1.0  0.78423  0.07087  0.87747  1.0000
  P   P2553     1.0  0.77357  0.05724  0.87844  1.0000
  P   P2554     1.0  0.77462  0.07073  0.94768  1.0000
  P   P2555     1.0  0.72852  0.05661  0.94890  1.0000
  P   P2556     1.0  0.73013  0.07011  0.87749  1.0000
  P   P2557     1.0  0.71947  0.05648  0.87836  1.0000
  P   P2558     1.0  0.72062  0.07000  0.94773  1.0000
  P   P2559     1.0  0.67453  0.05588  0.94898  1.0000
  P   P2560     1.0  0.67612  0.06938  0.87762  1.0000
  P   P2561     1.0  0.66547  0.05576  0.87845  1.0000
  P   P2562     1.0  0.66666  0.06929  0.94788  1.0000
  P   P2563     1.0  0.62057  0.05517  0.94914  1.0000
  P   P2564     1.0  0.62215  0.06867  0.87780  1.0000
  P   P2565     1.0  0.61152  0.05505  0.87861  1.0000
  P   P2566     1.0  0.61272  0.06859  0.94806  1.0000
  P   P2567     1.0  0.56663  0.05446  0.94931  1.0000
  P   P2568     1.0  0.56820  0.06795  0.87794  1.0000
  P   P2569     1.0  0.55758  0.05434  0.87878  1.0000
  P   P2570     1.0  0.55878  0.06787  0.94821  1.0000
  P   P2571     1.0  0.51269  0.05375  0.94944  1.0000
  P   P2572     1.0  0.51424  0.06722  0.87802  1.0000
  P   P2573     1.0  0.50364  0.05361  0.87888  1.0000
  P   P2574     1.0  0.50481  0.06714  0.94828  1.0000
  P   P2575     1.0  0.45871  0.05301  0.94948  1.0000
  P   P2576     1.0  0.46025  0.06646  0.87798  1.0000
  P   P2577     1.0  0.44967  0.05286  0.87888  1.0000
  P   P2578     1.0  0.45077  0.06637  0.94822  1.0000
  P   P2579     1.0  0.40467  0.05223  0.94937  1.0000
  P   P2580     1.0  0.40617  0.06564  0.87777  1.0000
  P   P2581     1.0  0.39561  0.05205  0.87873  1.0000
  P   P2582     1.0  0.39659  0.06551  0.94799  1.0000
  P   P2583     1.0  0.35048  0.05136  0.94907  1.0000
  P   P2584     1.0  0.35188  0.06469  0.87733  1.0000
  P   P2585     1.0  0.34135  0.05111  0.87835  1.0000
  P   P2586     1.0  0.34212  0.06449  0.94753  1.0000
  P   P2587     1.0  0.29599  0.05031  0.94851  1.0000
  P   P2588     1.0  0.29716  0.06351  0.87664  1.0000
  P   P2589     1.0  0.28668  0.04994  0.87770  1.0000
  P   P2590     1.0  0.28706  0.06314  0.94683  1.0000
  P   P2591     1.0  0.24087  0.04893  0.94774  1.0000
  P   P2592     1.0  0.24158  0.06191  0.87604  1.0000
  P   P2593     1.0  0.23113  0.04836  0.87694  1.0000
  P   P2594     1.0  0.23076  0.06117  0.94625  1.0000
  P   P2595     1.0  0.18448  0.04690  0.94727  1.0000
  P   P2596     1.0  0.18452  0.05971  0.87657  1.0000
  P   P2597     1.0  0.17409  0.04617  0.87684  1.0000
  P   P2598     1.0  0.17287  0.05852  0.94686  1.0000
  P   P2599     1.0  0.12651  0.04422  0.94800  1.0000
  P   P2600     1.0  0.12620  0.05702  0.87803  1.0000
  P   P2601     1.0  0.11579  0.04349  0.87800  1.0000
  P   P2602     1.0  0.11473  0.05584  0.94846  1.0000
  P   P2603     1.0  0.06834  0.04154  0.94980  1.0000
  P   P2604     1.0  0.06749  0.05417  0.87977  1.0000
  P   P2605     1.0  0.05712  0.04065  0.88002  1.0000
  P   P2606     1.0  0.05552  0.05284  0.94997  1.0000
  P   P2607     1.0  0.00908  0.03855  0.95148  1.0000
  P   P2608     1.0  0.00850  0.05123  0.88093  1.0000
  P   P2609     1.0  0.99804  0.03770  0.88157  1.0000
  P   P2610     1.0  0.99602  0.04981  0.95075  1.0000
  P   P2611     1.0  0.94963  0.03556  0.95225  1.0000
  P   P2612     1.0  0.94994  0.04854  0.88094  1.0000
  P   P2613     1.0  0.93940  0.03497  0.88198  1.0000
  P   P2614     1.0  0.93783  0.04735  0.95063  1.0000
  P   P2615     1.0  0.89155  0.03315  0.95178  1.0000
  P   P2616     1.0  0.89279  0.04645  0.87982  1.0000
  P   P2617     1.0  0.88218  0.03285  0.88122  1.0000
  P   P2618     1.0  0.88171  0.04574  0.94964  1.0000
  P   P2619     1.0  0.83553  0.03158  0.95063  1.0000
  P   P2620     1.0  0.83713  0.04502  0.87862  1.0000
  P   P2621     1.0  0.82648  0.03140  0.87997  1.0000
  P   P2622     1.0  0.82683  0.04463  0.94860  1.0000
  P   P2623     1.0  0.78069  0.03050  0.94965  1.0000
  P   P2624     1.0  0.78237  0.04398  0.87787  1.0000
  P   P2625     1.0  0.77170  0.03035  0.87903  1.0000
  P   P2626     1.0  0.77249  0.04375  0.94798  1.0000
  P   P2627     1.0  0.72638  0.02964  0.94912  1.0000
  P   P2628     1.0  0.72806  0.04314  0.87755  1.0000
  P   P2629     1.0  0.71737  0.02950  0.87854  1.0000
  P   P2630     1.0  0.71840  0.04298  0.94773  1.0000
  P   P2631     1.0  0.67230  0.02887  0.94894  1.0000
  P   P2632     1.0  0.67396  0.04238  0.87750  1.0000
  P   P2633     1.0  0.66327  0.02874  0.87839  1.0000
  P   P2634     1.0  0.66441  0.04226  0.94773  1.0000
  P   P2635     1.0  0.61832  0.02814  0.94898  1.0000
  P   P2636     1.0  0.61996  0.04165  0.87761  1.0000
  P   P2637     1.0  0.60927  0.02802  0.87844  1.0000
  P   P2638     1.0  0.61046  0.04155  0.94787  1.0000
  P   P2639     1.0  0.56437  0.02743  0.94912  1.0000
  P   P2640     1.0  0.56600  0.04094  0.87777  1.0000
  P   P2641     1.0  0.55533  0.02731  0.87858  1.0000
  P   P2642     1.0  0.55653  0.04084  0.94804  1.0000
  P   P2643     1.0  0.51044  0.02672  0.94929  1.0000
  P   P2644     1.0  0.51207  0.04022  0.87791  1.0000
  P   P2645     1.0  0.50140  0.02660  0.87874  1.0000
  P   P2646     1.0  0.50260  0.04013  0.94818  1.0000
  P   P2647     1.0  0.45651  0.02601  0.94941  1.0000
  P   P2648     1.0  0.45812  0.03949  0.87798  1.0000
  P   P2649     1.0  0.44748  0.02587  0.87884  1.0000
  P   P2650     1.0  0.44864  0.03939  0.94824  1.0000
  P   P2651     1.0  0.40254  0.02527  0.94943  1.0000
  P   P2652     1.0  0.40415  0.03874  0.87793  1.0000
  P   P2653     1.0  0.39351  0.02512  0.87882  1.0000
  P   P2654     1.0  0.39461  0.03862  0.94817  1.0000
  P   P2655     1.0  0.34851  0.02448  0.94930  1.0000
  P   P2656     1.0  0.35008  0.03791  0.87769  1.0000
  P   P2657     1.0  0.33946  0.02430  0.87864  1.0000
  P   P2658     1.0  0.34043  0.03775  0.94790  1.0000
  P   P2659     1.0  0.29432  0.02361  0.94896  1.0000
  P   P2660     1.0  0.29580  0.03696  0.87720  1.0000
  P   P2661     1.0  0.28521  0.02336  0.87821  1.0000
  P   P2662     1.0  0.28594  0.03671  0.94738  1.0000
  P   P2663     1.0  0.23981  0.02255  0.94833  1.0000
  P   P2664     1.0  0.24109  0.03577  0.87645  1.0000
  P   P2665     1.0  0.23052  0.02218  0.87750  1.0000
  P   P2666     1.0  0.23084  0.03533  0.94662  1.0000
  P   P2667     1.0  0.18466  0.02114  0.94750  1.0000
  P   P2668     1.0  0.18549  0.03416  0.87587  1.0000
  P   P2669     1.0  0.17493  0.02058  0.87671  1.0000
  P   P2670     1.0  0.17447  0.03333  0.94607  1.0000
  P   P2671     1.0  0.12820  0.01908  0.94708  1.0000
  P   P2672     1.0  0.12840  0.03197  0.87656  1.0000
  P   P2673     1.0  0.11784  0.01839  0.87669  1.0000
  P   P2674     1.0  0.11660  0.03070  0.94685  1.0000
  P   P2675     1.0  0.07026  0.01642  0.94800  1.0000
  P   P2676     1.0  0.07012  0.02930  0.87827  1.0000
  P   P2677     1.0  0.05958  0.01574  0.87804  1.0000
  P   P2678     1.0  0.05855  0.02807  0.94873  1.0000
  P   P2679     1.0  0.01216  0.01380  0.95008  1.0000
  P   P2680     1.0  0.01147  0.02648  0.88027  1.0000
  P   P2681     1.0  0.00098  0.01293  0.88034  1.0000
  P   P2682     1.0  0.99931  0.02508  0.95043  1.0000
  P   P2683     1.0  0.95288  0.01080  0.95187  1.0000
  P   P2684     1.0  0.95241  0.02354  0.88148  1.0000
  P   P2685     1.0  0.94188  0.00998  0.88198  1.0000
  P   P2686     1.0  0.93980  0.02206  0.95126  1.0000
  P   P2687     1.0  0.89341  0.00782  0.95267  1.0000
  P   P2688     1.0  0.89382  0.02083  0.88143  1.0000
  P   P2689     1.0  0.88324  0.00726  0.88240  1.0000
  P   P2690     1.0  0.88162  0.01961  0.95109  1.0000
  P   P2691     1.0  0.83534  0.00542  0.95217  1.0000
  P   P2692     1.0  0.83665  0.01874  0.88023  1.0000
  P   P2693     1.0  0.82602  0.00513  0.88159  1.0000
  P   P2694     1.0  0.82549  0.01800  0.95001  1.0000
  P   P2695     1.0  0.77931  0.00385  0.95094  1.0000
  P   P2696     1.0  0.78096  0.01729  0.87891  1.0000
  P   P2697     1.0  0.77030  0.00367  0.88026  1.0000
  P   P2698     1.0  0.77059  0.01689  0.94886  1.0000
  P   P2699     1.0  0.72446  0.00276  0.94986  1.0000
  P   P2700     1.0  0.72618  0.01625  0.87804  1.0000
  P   P2701     1.0  0.71549  0.00262  0.87921  1.0000
  P   P2702     1.0  0.71625  0.01601  0.94812  1.0000
  P   P2703     1.0  0.67015  0.00190  0.94923  1.0000
  P   P2704     1.0  0.67185  0.01540  0.87762  1.0000
  P   P2705     1.0  0.66115  0.00176  0.87863  1.0000
  P   P2706     1.0  0.66216  0.01524  0.94779  1.0000
  P   P2707     1.0  0.61607  0.00113  0.94898  1.0000
  P   P2708     1.0  0.61775  0.01464  0.87752  1.0000
  P   P2709     1.0  0.60705  0.00100  0.87842  1.0000
  P   P2710     1.0  0.60818  0.01451  0.94775  1.0000
  P   P2711     1.0  0.56209  0.00040  0.94898  1.0000
  P   P2712     1.0  0.56376  0.01392  0.87759  1.0000
  P   P2713     1.0  0.55306  0.00028  0.87843  1.0000
  P   P2714     1.0  0.55424  0.01380  0.94785  1.0000
  P   P2715     1.0  0.50815  0.99969  0.94910  1.0000
  P   P2716     1.0  0.50981  0.01320  0.87774  1.0000
  P   P2717     1.0  0.49912  0.99957  0.87855  1.0000
  P   P2718     1.0  0.50032  0.01309  0.94800  1.0000
  P   P2719     1.0  0.45589  0.01249  0.87787  1.0000
  P   P2720     1.0  0.44639  0.01238  0.94814  1.0000
  P   P2721     1.0  0.40196  0.01176  0.87793  1.0000
  P   P2722     1.0  0.39244  0.01164  0.94819  1.0000
  P   P2723     1.0  0.34799  0.01100  0.87786  1.0000
  P   P2724     1.0  0.33841  0.01086  0.94810  1.0000
  P   P2725     1.0  0.29393  0.01017  0.87759  1.0000
  P   P2726     1.0  0.28423  0.00999  0.94780  1.0000
  P   P2727     1.0  0.23965  0.00921  0.87705  1.0000
  P   P2728     1.0  0.22973  0.00894  0.94722  1.0000
  P   P2729     1.0  0.18493  0.00801  0.87626  1.0000
  P   P2730     1.0  0.17458  0.00754  0.94641  1.0000
  P   P2731     1.0  0.12929  0.00640  0.87569  1.0000
  P   P2732     1.0  0.11813  0.00550  0.94588  1.0000
  P   P2733     1.0  0.07216  0.00420  0.87651  1.0000
  P   P2734     1.0  0.06029  0.00289  0.94681  1.0000
  P   P2735     1.0  0.01392  0.00156  0.87840  1.0000
  P   P2736     1.0  0.00231  0.00030  0.94888  1.0000
  P   P2737     1.0  0.98659  0.98543  0.05258  1.0000
  P   P2738     1.0  0.94429  0.98613  0.12465  1.0000
  P   P2739     1.0  0.93587  0.98660  0.05484  1.0000
  P   P2740     1.0  0.89361  0.98731  0.12620  1.0000
  P   P2741     1.0  0.88536  0.98765  0.05589  1.0000
  P   P2742     1.0  0.84262  0.98818  0.12551  1.0000
  P   P2743     1.0  0.83484  0.98851  0.05460  1.0000
  P   P2744     1.0  0.79099  0.98854  0.12356  1.0000
  P   P2745     1.0  0.78312  0.98874  0.05244  1.0000
  P   P2746     1.0  0.73866  0.98849  0.12177  1.0000
  P   P2747     1.0  0.73044  0.98854  0.05073  1.0000
  P   P2748     1.0  0.68574  0.98815  0.12057  1.0000
  P   P2749     1.0  0.67723  0.98811  0.04965  1.0000
  P   P2750     1.0  0.63243  0.98764  0.11991  1.0000
  P   P2751     1.0  0.62373  0.98757  0.04909  1.0000
  P   P2752     1.0  0.57887  0.98705  0.11964  1.0000
  P   P2753     1.0  0.57006  0.98695  0.04890  1.0000
  P   P2754     1.0  0.52517  0.98641  0.11962  1.0000
  P   P2755     1.0  0.51629  0.98631  0.04893  1.0000
  P   P2756     1.0  0.47138  0.98575  0.11973  1.0000
  P   P2757     1.0  0.46248  0.98564  0.04906  1.0000
  P   P2758     1.0  0.41756  0.98508  0.11987  1.0000
  P   P2759     1.0  0.40865  0.98497  0.04920  1.0000
  P   P2760     1.0  0.36372  0.98442  0.11996  1.0000
  P   P2761     1.0  0.35482  0.98432  0.04929  1.0000
  P   P2762     1.0  0.30991  0.98379  0.11995  1.0000
  P   P2763     1.0  0.30103  0.98369  0.04926  1.0000
  P   P2764     1.0  0.25618  0.98321  0.11977  1.0000
  P   P2765     1.0  0.24735  0.98312  0.04906  1.0000
  P   P2766     1.0  0.20266  0.98275  0.11941  1.0000
  P   P2767     1.0  0.19386  0.98269  0.04872  1.0000
  P   P2768     1.0  0.14955  0.98254  0.11904  1.0000
  P   P2769     1.0  0.14079  0.98254  0.04843  1.0000
  P   P2770     1.0  0.09719  0.98277  0.11909  1.0000
  P   P2771     1.0  0.08856  0.98296  0.04874  1.0000
  P   P2772     1.0  0.04574  0.98359  0.12011  1.0000
  P   P2773     1.0  0.03733  0.98407  0.05022  1.0000
  P   P2774     1.0  0.99491  0.98480  0.12219  1.0000
  P   P2775     1.0  0.98971  0.95597  0.12006  1.0000
  P   P2776     1.0  0.98129  0.95646  0.05019  1.0000
  P   P2777     1.0  0.98453  0.97112  0.12181  1.0000
  P   P2778     1.0  0.93888  0.95719  0.12219  1.0000
  P   P2779     1.0  0.94112  0.97151  0.05385  1.0000
  P   P2780     1.0  0.93053  0.95780  0.05259  1.0000
  P   P2781     1.0  0.93389  0.97244  0.12423  1.0000
  P   P2782     1.0  0.88821  0.95848  0.12475  1.0000
  P   P2783     1.0  0.89041  0.97266  0.05578  1.0000
  P   P2784     1.0  0.87976  0.95894  0.05494  1.0000
  P   P2785     1.0  0.88316  0.97361  0.12616  1.0000
  P   P2786     1.0  0.83745  0.95961  0.12639  1.0000
  P   P2787     1.0  0.83986  0.97366  0.05608  1.0000
  P   P2788     1.0  0.82920  0.95995  0.05608  1.0000
  P   P2789     1.0  0.83211  0.97447  0.12629  1.0000
  P   P2790     1.0  0.78638  0.96044  0.12575  1.0000
  P   P2791     1.0  0.78921  0.97446  0.05446  1.0000
  P   P2792     1.0  0.77861  0.96078  0.05485  1.0000
  P   P2793     1.0  0.78048  0.97484  0.12466  1.0000
  P   P2794     1.0  0.73470  0.96078  0.12380  1.0000
  P   P2795     1.0  0.73741  0.97466  0.05259  1.0000
  P   P2796     1.0  0.72685  0.96099  0.05268  1.0000
  P   P2797     1.0  0.72816  0.97480  0.12283  1.0000
  P   P2798     1.0  0.68234  0.96072  0.12197  1.0000
  P   P2799     1.0  0.68470  0.97445  0.05114  1.0000
  P   P2800     1.0  0.67414  0.96078  0.05093  1.0000
  P   P2801     1.0  0.67527  0.97447  0.12146  1.0000
  P   P2802     1.0  0.62942  0.96038  0.12072  1.0000
  P   P2803     1.0  0.63149  0.97402  0.05023  1.0000
  P   P2804     1.0  0.62093  0.96036  0.04979  1.0000
  P   P2805     1.0  0.62198  0.97398  0.12062  1.0000
  P   P2806     1.0  0.57612  0.95988  0.12000  1.0000
  P   P2807     1.0  0.57798  0.97347  0.04979  1.0000
  P   P2808     1.0  0.56744  0.95981  0.04917  1.0000
  P   P2809     1.0  0.56845  0.97339  0.12022  1.0000
  P   P2810     1.0  0.52258  0.95929  0.11969  1.0000
  P   P2811     1.0  0.52431  0.97285  0.04966  1.0000
  P   P2812     1.0  0.51378  0.95920  0.04893  1.0000
  P   P2813     1.0  0.51477  0.97276  0.12011  1.0000
  P   P2814     1.0  0.46890  0.95866  0.11964  1.0000
  P   P2815     1.0  0.47055  0.97221  0.04972  1.0000
  P   P2816     1.0  0.46003  0.95856  0.04893  1.0000
  P   P2817     1.0  0.46101  0.97210  0.12018  1.0000
  P   P2818     1.0  0.41513  0.95800  0.11972  1.0000
  P   P2819     1.0  0.41674  0.97154  0.04985  1.0000
  P   P2820     1.0  0.40623  0.95790  0.04904  1.0000
  P   P2821     1.0  0.40720  0.97144  0.12031  1.0000
  P   P2822     1.0  0.36132  0.95734  0.11985  1.0000
  P   P2823     1.0  0.36290  0.97088  0.04998  1.0000
  P   P2824     1.0  0.35241  0.95723  0.04918  1.0000
  P   P2825     1.0  0.35337  0.97079  0.12042  1.0000
  P   P2826     1.0  0.30750  0.95669  0.11993  1.0000
  P   P2827     1.0  0.30908  0.97022  0.05003  1.0000
  P   P2828     1.0  0.29860  0.95658  0.04926  1.0000
  P   P2829     1.0  0.29957  0.97015  0.12044  1.0000
  P   P2830     1.0  0.25370  0.95606  0.11990  1.0000
  P   P2831     1.0  0.25531  0.96960  0.04994  1.0000
  P   P2832     1.0  0.24483  0.95596  0.04921  1.0000
  P   P2833     1.0  0.24586  0.96958  0.12031  1.0000
  P   P2834     1.0  0.19999  0.95549  0.11970  1.0000
  P   P2835     1.0  0.20164  0.96904  0.04967  1.0000
  P   P2836     1.0  0.19116  0.95540  0.04899  1.0000
  P   P2837     1.0  0.19234  0.96912  0.11998  1.0000
  P   P2838     1.0  0.14650  0.95505  0.11931  1.0000
  P   P2839     1.0  0.14818  0.96864  0.04927  1.0000
  P   P2840     1.0  0.13770  0.95498  0.04861  1.0000
  P   P2841     1.0  0.13924  0.96891  0.11952  1.0000
  P   P2842     1.0  0.09343  0.95486  0.11891  1.0000
  P   P2843     1.0  0.09516  0.96853  0.04909  1.0000
  P   P2844     1.0  0.08467  0.95486  0.04831  1.0000
  P   P2845     1.0  0.08688  0.96913  0.11930  1.0000
  P   P2846     1.0  0.04113  0.95513  0.11899  1.0000
  P   P2847     1.0  0.04299  0.96901  0.04977  1.0000
  P   P2848     1.0  0.03250  0.95533  0.04865  1.0000
  P   P2849     1.0  0.03540  0.96992  0.11997  1.0000
  P   P2850     1.0  0.99181  0.97015  0.05154  1.0000
  P   P2851     1.0  0.98506  0.92750  0.11892  1.0000
  P   P2852     1.0  0.98693  0.94139  0.04972  1.0000
  P   P2853     1.0  0.97644  0.92770  0.04860  1.0000
  P   P2854     1.0  0.97936  0.94230  0.11991  1.0000
  P   P2855     1.0  0.93368  0.92836  0.12005  1.0000
  P   P2856     1.0  0.93577  0.94253  0.05152  1.0000
  P   P2857     1.0  0.92525  0.92884  0.05019  1.0000
  P   P2858     1.0  0.92849  0.94351  0.12180  1.0000
  P   P2859     1.0  0.88284  0.92957  0.12221  1.0000
  P   P2860     1.0  0.88506  0.94387  0.05387  1.0000
  P   P2861     1.0  0.87447  0.93017  0.05261  1.0000
  P   P2862     1.0  0.87781  0.94479  0.12427  1.0000
  P   P2863     1.0  0.83212  0.93082  0.12483  1.0000
  P   P2864     1.0  0.83429  0.94498  0.05588  1.0000
  P   P2865     1.0  0.82365  0.93126  0.05501  1.0000
  P   P2866     1.0  0.82701  0.94591  0.12629  1.0000
  P   P2867     1.0  0.78129  0.93190  0.12651  1.0000
  P   P2868     1.0  0.78368  0.94595  0.05625  1.0000
  P   P2869     1.0  0.77304  0.93225  0.05620  1.0000
  P   P2870     1.0  0.77589  0.94674  0.12647  1.0000
  P   P2871     1.0  0.73016  0.93270  0.12591  1.0000
  P   P2872     1.0  0.73298  0.94673  0.05467  1.0000
  P   P2873     1.0  0.72240  0.93305  0.05500  1.0000
  P   P2874     1.0  0.72421  0.94709  0.12487  1.0000
  P   P2875     1.0  0.67843  0.93303  0.12397  1.0000
  P   P2876     1.0  0.68114  0.94690  0.05278  1.0000
  P   P2877     1.0  0.67060  0.93324  0.05285  1.0000
  P   P2878     1.0  0.67187  0.94704  0.12302  1.0000
  P   P2879     1.0  0.62605  0.93296  0.12212  1.0000
  P   P2880     1.0  0.62841  0.94669  0.05129  1.0000
  P   P2881     1.0  0.61787  0.93303  0.05107  1.0000
  P   P2882     1.0  0.61897  0.94671  0.12160  1.0000
  P   P2883     1.0  0.57312  0.93262  0.12083  1.0000
  P   P2884     1.0  0.57519  0.94626  0.05033  1.0000
  P   P2885     1.0  0.56465  0.93260  0.04989  1.0000
  P   P2886     1.0  0.56569  0.94622  0.12071  1.0000
  P   P2887     1.0  0.51982  0.93212  0.12007  1.0000
  P   P2888     1.0  0.52169  0.94571  0.04984  1.0000
  P   P2889     1.0  0.51116  0.93206  0.04923  1.0000
  P   P2890     1.0  0.51217  0.94564  0.12027  1.0000
  P   P2891     1.0  0.46630  0.93154  0.11972  1.0000
  P   P2892     1.0  0.46804  0.94510  0.04968  1.0000
  P   P2893     1.0  0.45752  0.93145  0.04896  1.0000
  P   P2894     1.0  0.45851  0.94501  0.12013  1.0000
  P   P2895     1.0  0.41263  0.93091  0.11965  1.0000
  P   P2896     1.0  0.41429  0.94446  0.04972  1.0000
  P   P2897     1.0  0.40378  0.93081  0.04893  1.0000
  P   P2898     1.0  0.40476  0.94436  0.12018  1.0000
  P   P2899     1.0  0.35888  0.93026  0.11972  1.0000
  P   P2900     1.0  0.36049  0.94380  0.04984  1.0000
  P   P2901     1.0  0.34999  0.93015  0.04903  1.0000
  P   P2902     1.0  0.35096  0.94370  0.12030  1.0000
  P   P2903     1.0  0.30509  0.92960  0.11984  1.0000
  P   P2904     1.0  0.30667  0.94314  0.04996  1.0000
  P   P2905     1.0  0.29618  0.92949  0.04916  1.0000
  P   P2906     1.0  0.29715  0.94305  0.12040  1.0000
  P   P2907     1.0  0.25128  0.92895  0.11991  1.0000
  P   P2908     1.0  0.25287  0.94249  0.05000  1.0000
  P   P2909     1.0  0.24238  0.92884  0.04923  1.0000
  P   P2910     1.0  0.24337  0.94242  0.12041  1.0000
  P   P2911     1.0  0.19750  0.92833  0.11987  1.0000
  P   P2912     1.0  0.19911  0.94187  0.04989  1.0000
  P   P2913     1.0  0.18862  0.92823  0.04917  1.0000
  P   P2914     1.0  0.18967  0.94186  0.12025  1.0000
  P   P2915     1.0  0.14381  0.92777  0.11964  1.0000
  P   P2916     1.0  0.14545  0.94133  0.04959  1.0000
  P   P2917     1.0  0.13497  0.92768  0.04893  1.0000
  P   P2918     1.0  0.13618  0.94142  0.11989  1.0000
  P   P2919     1.0  0.09034  0.92735  0.11923  1.0000
  P   P2920     1.0  0.09203  0.94094  0.04917  1.0000
  P   P2921     1.0  0.08154  0.92729  0.04853  1.0000
  P   P2922     1.0  0.08312  0.94123  0.11941  1.0000
  P   P2923     1.0  0.03732  0.92719  0.11882  1.0000
  P   P2924     1.0  0.03905  0.94087  0.04899  1.0000
  P   P2925     1.0  0.02855  0.92720  0.04823  1.0000
  P   P2926     1.0  0.03082  0.94149  0.11919  1.0000
  P   P2927     1.0  0.98120  0.89953  0.11878  1.0000
  P   P2928     1.0  0.98293  0.91320  0.04894  1.0000
  P   P2929     1.0  0.97243  0.89953  0.04819  1.0000
  P   P2930     1.0  0.97475  0.91385  0.11913  1.0000
  P   P2931     1.0  0.92900  0.89987  0.11890  1.0000
  P   P2932     1.0  0.93088  0.91376  0.04970  1.0000
  P   P2933     1.0  0.92037  0.90008  0.04860  1.0000
  P   P2934     1.0  0.92332  0.91468  0.11990  1.0000
  P   P2935     1.0  0.87763  0.90074  0.12008  1.0000
  P   P2936     1.0  0.87973  0.91492  0.05153  1.0000
  P   P2937     1.0  0.86920  0.90123  0.05023  1.0000
  P   P2938     1.0  0.87244  0.91589  0.12182  1.0000
  P   P2939     1.0  0.82679  0.90194  0.12225  1.0000
  P   P2940     1.0  0.82899  0.91623  0.05389  1.0000
  P   P2941     1.0  0.81839  0.90253  0.05264  1.0000
  P   P2942     1.0  0.82171  0.91713  0.12432  1.0000
  P   P2943     1.0  0.77602  0.90315  0.12489  1.0000
  P   P2944     1.0  0.77817  0.91730  0.05595  1.0000
  P   P2945     1.0  0.76753  0.90358  0.05506  1.0000
  P   P2946     1.0  0.77085  0.91821  0.12637  1.0000
  P   P2947     1.0  0.72512  0.90419  0.12658  1.0000
  P   P2948     1.0  0.72752  0.91824  0.05635  1.0000
  P   P2949     1.0  0.71687  0.90454  0.05626  1.0000
  P   P2950     1.0  0.71968  0.91900  0.12657  1.0000
  P   P2951     1.0  0.67394  0.90497  0.12599  1.0000
  P   P2952     1.0  0.67677  0.91899  0.05479  1.0000
  P   P2953     1.0  0.66619  0.90532  0.05509  1.0000
  P   P2954     1.0  0.66797  0.91934  0.12499  1.0000
  P   P2955     1.0  0.62219  0.90528  0.12406  1.0000
  P   P2956     1.0  0.62489  0.91916  0.05291  1.0000
  P   P2957     1.0  0.61436  0.90550  0.05295  1.0000
  P   P2958     1.0  0.61560  0.91928  0.12314  1.0000
  P   P2959     1.0  0.56978  0.90520  0.12221  1.0000
  P   P2960     1.0  0.57214  0.91894  0.05140  1.0000
  P   P2961     1.0  0.56162  0.90528  0.05116  1.0000
  P   P2962     1.0  0.56269  0.91895  0.12170  1.0000
  P   P2963     1.0  0.51684  0.90486  0.12091  1.0000
  P   P2964     1.0  0.51891  0.91850  0.05041  1.0000
  P   P2965     1.0  0.50839  0.90485  0.04996  1.0000
  P   P2966     1.0  0.50941  0.91846  0.12079  1.0000
  P   P2967     1.0  0.46355  0.90437  0.12012  1.0000
  P   P2968     1.0  0.46542  0.91796  0.04989  1.0000
  P   P2969     1.0  0.45490  0.90431  0.04928  1.0000
  P   P2970     1.0  0.45590  0.91789  0.12031  1.0000
  P   P2971     1.0  0.41003  0.90379  0.11975  1.0000
  P   P2972     1.0  0.41177  0.91735  0.04970  1.0000
  P   P2973     1.0  0.40126  0.90370  0.04899  1.0000
  P   P2974     1.0  0.40225  0.91726  0.12015  1.0000
  P   P2975     1.0  0.35638  0.90316  0.11966  1.0000
  P   P2976     1.0  0.35803  0.91671  0.04972  1.0000
  P   P2977     1.0  0.34753  0.90306  0.04895  1.0000
  P   P2978     1.0  0.34851  0.91662  0.12018  1.0000
  P   P2979     1.0  0.30264  0.90252  0.11973  1.0000
  P   P2980     1.0  0.30425  0.91605  0.04983  1.0000
  P   P2981     1.0  0.29375  0.90241  0.04904  1.0000
  P   P2982     1.0  0.29473  0.91596  0.12029  1.0000
  P   P2983     1.0  0.24885  0.90187  0.11984  1.0000
  P   P2984     1.0  0.25044  0.91540  0.04995  1.0000
  P   P2985     1.0  0.23995  0.90175  0.04916  1.0000
  P   P2986     1.0  0.24093  0.91532  0.12039  1.0000
  P   P2987     1.0  0.19506  0.90122  0.11991  1.0000
  P   P2988     1.0  0.19665  0.91475  0.04998  1.0000
  P   P2989     1.0  0.18616  0.90111  0.04923  1.0000
  P   P2990     1.0  0.18716  0.91470  0.12039  1.0000
  P   P2991     1.0  0.14129  0.90061  0.11986  1.0000
  P   P2992     1.0  0.14290  0.91415  0.04986  1.0000
  P   P2993     1.0  0.13241  0.90050  0.04916  1.0000
  P   P2994     1.0  0.13348  0.91414  0.12021  1.0000
  P   P2995     1.0  0.08762  0.90007  0.11962  1.0000
  P   P2996     1.0  0.08927  0.91362  0.04954  1.0000
  P   P2997     1.0  0.07878  0.89997  0.04890  1.0000
  P   P2998     1.0  0.08002  0.91372  0.11983  1.0000
  P   P2999     1.0  0.03418  0.89966  0.11919  1.0000
  P   P3000     1.0  0.03587  0.91325  0.04911  1.0000
  P   P3001     1.0  0.02538  0.89959  0.04849  1.0000
  P   P3002     1.0  0.02700  0.91356  0.11933  1.0000
  P   P3003     1.0  0.97803  0.87197  0.11919  1.0000
  P   P3004     1.0  0.97970  0.88556  0.04908  1.0000
  P   P3005     1.0  0.96921  0.87190  0.04849  1.0000
  P   P3006     1.0  0.97089  0.88589  0.11930  1.0000
  P   P3007     1.0  0.92509  0.87187  0.11878  1.0000
  P   P3008     1.0  0.92681  0.88555  0.04893  1.0000
  P   P3009     1.0  0.91631  0.87187  0.04820  1.0000
  P   P3010     1.0  0.91868  0.88622  0.11912  1.0000
  P   P3011     1.0  0.87294  0.87224  0.11893  1.0000
  P   P3012     1.0  0.87482  0.88615  0.04974  1.0000
  P   P3013     1.0  0.86431  0.87246  0.04865  1.0000
  P   P3014     1.0  0.86727  0.88707  0.11994  1.0000
  P   P3015     1.0  0.82158  0.87313  0.12015  1.0000
  P   P3016     1.0  0.82368  0.88730  0.05158  1.0000
  P   P3017     1.0  0.81314  0.87361  0.05030  1.0000
  P   P3018     1.0  0.81637  0.88825  0.12187  1.0000
  P   P3019     1.0  0.77071  0.87431  0.12231  1.0000
  P   P3020     1.0  0.77291  0.88859  0.05391  1.0000
  P   P3021     1.0  0.76231  0.87488  0.05268  1.0000
  P   P3022     1.0  0.76559  0.88946  0.12435  1.0000
  P   P3023     1.0  0.71989  0.87548  0.12492  1.0000
  P   P3024     1.0  0.72205  0.88962  0.05597  1.0000
  P   P3025     1.0  0.71140  0.87590  0.05507  1.0000
  P   P3026     1.0  0.71469  0.89050  0.12641  1.0000
  P   P3027     1.0  0.66895  0.87648  0.12660  1.0000
  P   P3028     1.0  0.67135  0.89053  0.05638  1.0000
  P   P3029     1.0  0.66071  0.87682  0.05627  1.0000
  P   P3030     1.0  0.66348  0.89127  0.12662  1.0000
  P   P3031     1.0  0.61773  0.87723  0.12601  1.0000
  P   P3032     1.0  0.62056  0.89126  0.05485  1.0000
  P   P3033     1.0  0.60999  0.87758  0.05511  1.0000
  P   P3034     1.0  0.61173  0.89160  0.12505  1.0000
  P   P3035     1.0  0.56595  0.87753  0.12409  1.0000
  P   P3036     1.0  0.56865  0.89141  0.05298  1.0000
  P   P3037     1.0  0.55814  0.87776  0.05299  1.0000
  P   P3038     1.0  0.55935  0.89153  0.12320  1.0000
  P   P3039     1.0  0.51353  0.87745  0.12226  1.0000
  P   P3040     1.0  0.51589  0.89119  0.05146  1.0000
  P   P3041     1.0  0.50539  0.87754  0.05120  1.0000
  P   P3042     1.0  0.50643  0.89120  0.12176  1.0000
  P   P3043     1.0  0.46058  0.87711  0.12094  1.0000
  P   P3044     1.0  0.46265  0.89075  0.05046  1.0000
  P   P3045     1.0  0.45215  0.87710  0.05000  1.0000
  P   P3046     1.0  0.45315  0.89071  0.12083  1.0000
  P   P3047     1.0  0.40728  0.87661  0.12016  1.0000
  P   P3048     1.0  0.40916  0.89021  0.04992  1.0000
  P   P3049     1.0  0.39865  0.87656  0.04931  1.0000
  P   P3050     1.0  0.39964  0.89014  0.12034  1.0000
  P   P3051     1.0  0.35377  0.87604  0.11978  1.0000
  P   P3052     1.0  0.35551  0.88960  0.04972  1.0000
  P   P3053     1.0  0.34501  0.87595  0.04901  1.0000
  P   P3054     1.0  0.34600  0.88952  0.12017  1.0000
  P   P3055     1.0  0.30013  0.87542  0.11968  1.0000
  P   P3056     1.0  0.30178  0.88896  0.04973  1.0000
  P   P3057     1.0  0.29128  0.87532  0.04896  1.0000
  P   P3058     1.0  0.29227  0.88888  0.12020  1.0000
  P   P3059     1.0  0.24640  0.87478  0.11975  1.0000
  P   P3060     1.0  0.24801  0.88831  0.04985  1.0000
  P   P3061     1.0  0.23751  0.87467  0.04906  1.0000
  P   P3062     1.0  0.23850  0.88823  0.12031  1.0000
  P   P3063     1.0  0.19263  0.87413  0.11986  1.0000
  P   P3064     1.0  0.19421  0.88766  0.04996  1.0000
  P   P3065     1.0  0.18371  0.87402  0.04918  1.0000
  P   P3066     1.0  0.18471  0.88759  0.12040  1.0000
  P   P3067     1.0  0.13885  0.87350  0.11994  1.0000
  P   P3068     1.0  0.14043  0.88702  0.04999  1.0000
  P   P3069     1.0  0.12993  0.87338  0.04925  1.0000
  P   P3070     1.0  0.13096  0.88698  0.12040  1.0000
  P   P3071     1.0  0.08509  0.87289  0.11988  1.0000
  P   P3072     1.0  0.08669  0.88642  0.04986  1.0000
  P   P3073     1.0  0.07620  0.87278  0.04918  1.0000
  P   P3074     1.0  0.07729  0.88643  0.12021  1.0000
  P   P3075     1.0  0.03144  0.87236  0.11963  1.0000
  P   P3076     1.0  0.03308  0.88591  0.04952  1.0000
  P   P3077     1.0  0.02259  0.87226  0.04891  1.0000
  P   P3078     1.0  0.02386  0.88603  0.11981  1.0000
  P   P3079     1.0  0.97527  0.84466  0.11969  1.0000
  P   P3080     1.0  0.97689  0.85820  0.04956  1.0000
  P   P3081     1.0  0.96639  0.84455  0.04897  1.0000
  P   P3082     1.0  0.96771  0.85834  0.11983  1.0000
  P   P3083     1.0  0.92188  0.84429  0.11924  1.0000
  P   P3084     1.0  0.92354  0.85787  0.04911  1.0000
  P   P3085     1.0  0.91304  0.84421  0.04855  1.0000
  P   P3086     1.0  0.91478  0.85824  0.11933  1.0000
  P   P3087     1.0  0.86899  0.84422  0.11885  1.0000
  P   P3088     1.0  0.87070  0.85790  0.04899  1.0000
  P   P3089     1.0  0.86019  0.84422  0.04827  1.0000
  P   P3090     1.0  0.86261  0.85859  0.11917  1.0000
  P   P3091     1.0  0.81688  0.84462  0.11903  1.0000
  P   P3092     1.0  0.81876  0.85853  0.04982  1.0000
  P   P3093     1.0  0.80825  0.84485  0.04876  1.0000
  P   P3094     1.0  0.81120  0.85945  0.12003  1.0000
  P   P3095     1.0  0.76552  0.84551  0.12026  1.0000
  P   P3096     1.0  0.76762  0.85968  0.05165  1.0000
  P   P3097     1.0  0.75708  0.84599  0.05041  1.0000
  P   P3098     1.0  0.76028  0.86062  0.12194  1.0000
  P   P3099     1.0  0.71462  0.84667  0.12238  1.0000
  P   P3100     1.0  0.71682  0.86093  0.05393  1.0000
  P   P3101     1.0  0.70620  0.84723  0.05272  1.0000
  P   P3102     1.0  0.70946  0.86179  0.12438  1.0000
  P   P3103     1.0  0.66375  0.84780  0.12494  1.0000
  P   P3104     1.0  0.66591  0.86193  0.05597  1.0000
  P   P3105     1.0  0.65525  0.84820  0.05507  1.0000
  P   P3106     1.0  0.65850  0.86279  0.12641  1.0000
  P   P3107     1.0  0.61277  0.84877  0.12658  1.0000
  P   P3108     1.0  0.61518  0.86281  0.05637  1.0000
  P   P3109     1.0  0.60453  0.84911  0.05624  1.0000
  P   P3110     1.0  0.60727  0.86353  0.12661  1.0000
  P   P3111     1.0  0.56152  0.84949  0.12598  1.0000
  P   P3112     1.0  0.56436  0.86352  0.05485  1.0000
  P   P3113     1.0  0.55379  0.84985  0.05508  1.0000
  P   P3114     1.0  0.55551  0.86385  0.12505  1.0000
  P   P3115     1.0  0.50972  0.84978  0.12408  1.0000
  P   P3116     1.0  0.51243  0.86367  0.05299  1.0000
  P   P3117     1.0  0.50193  0.85002  0.05297  1.0000
  P   P3118     1.0  0.50311  0.86378  0.12322  1.0000
  P   P3119     1.0  0.45729  0.84970  0.12225  1.0000
  P   P3120     1.0  0.45965  0.86344  0.05148  1.0000
  P   P3121     1.0  0.44916  0.84979  0.05121  1.0000
  P   P3122     1.0  0.45018  0.86345  0.12178  1.0000
  P   P3123     1.0  0.40433  0.84935  0.12095  1.0000
  P   P3124     1.0  0.40641  0.86300  0.05048  1.0000
  P   P3125     1.0  0.39591  0.84936  0.05001  1.0000
  P   P3126     1.0  0.39690  0.86297  0.12085  1.0000
  P   P3127     1.0  0.35104  0.84886  0.12017  1.0000
  P   P3128     1.0  0.35291  0.86246  0.04994  1.0000
  P   P3129     1.0  0.34241  0.84881  0.04932  1.0000
  P   P3130     1.0  0.34340  0.86239  0.12036  1.0000
  P   P3131     1.0  0.29753  0.84829  0.11980  1.0000
  P   P3132     1.0  0.29926  0.86185  0.04974  1.0000
  P   P3133     1.0  0.28876  0.84821  0.04903  1.0000
  P   P3134     1.0  0.28976  0.86178  0.12020  1.0000
  P   P3135     1.0  0.24389  0.84768  0.11971  1.0000
  P   P3136     1.0  0.24554  0.86122  0.04976  1.0000
  P   P3137     1.0  0.23504  0.84757  0.04899  1.0000
  P   P3138     1.0  0.23604  0.86114  0.12023  1.0000
  P   P3139     1.0  0.19017  0.84704  0.11979  1.0000
  P   P3140     1.0  0.19177  0.86057  0.04988  1.0000
  P   P3141     1.0  0.18127  0.84693  0.04910  1.0000
  P   P3142     1.0  0.18228  0.86049  0.12034  1.0000
  P   P3143     1.0  0.13641  0.84640  0.11991  1.0000
  P   P3144     1.0  0.13798  0.85992  0.05000  1.0000
  P   P3145     1.0  0.12748  0.84628  0.04923  1.0000
  P   P3146     1.0  0.12850  0.85986  0.12044  1.0000
  P   P3147     1.0  0.08263  0.84577  0.11999  1.0000
  P   P3148     1.0  0.08420  0.85929  0.05003  1.0000
  P   P3149     1.0  0.07371  0.84565  0.04931  1.0000
  P   P3150     1.0  0.07476  0.85926  0.12043  1.0000
  P   P3151     1.0  0.02890  0.84518  0.11994  1.0000
  P   P3152     1.0  0.03048  0.85870  0.04990  1.0000
  P   P3153     1.0  0.01999  0.84506  0.04924  1.0000
  P   P3154     1.0  0.02111  0.85873  0.12024  1.0000
  P   P3155     1.0  0.97271  0.81747  0.12005  1.0000
  P   P3156     1.0  0.97428  0.83099  0.04998  1.0000
  P   P3157     1.0  0.96378  0.81734  0.04935  1.0000
  P   P3158     1.0  0.96494  0.83103  0.12033  1.0000
  P   P3159     1.0  0.91910  0.81696  0.11980  1.0000
  P   P3160     1.0  0.92070  0.83050  0.04964  1.0000
  P   P3161     1.0  0.91020  0.81685  0.04909  1.0000
  P   P3162     1.0  0.91156  0.83066  0.11991  1.0000
  P   P3163     1.0  0.86574  0.81662  0.11936  1.0000
  P   P3164     1.0  0.86738  0.83019  0.04921  1.0000
  P   P3165     1.0  0.85688  0.81653  0.04867  1.0000
  P   P3166     1.0  0.85867  0.83058  0.11941  1.0000
  P   P3167     1.0  0.81289  0.81657  0.11898  1.0000
  P   P3168     1.0  0.81459  0.83025  0.04911  1.0000
  P   P3169     1.0  0.80408  0.81657  0.04842  1.0000
  P   P3170     1.0  0.80654  0.83096  0.11928  1.0000
  P   P3171     1.0  0.76081  0.81700  0.11919  1.0000
  P   P3172     1.0  0.76270  0.83092  0.04996  1.0000
  P   P3173     1.0  0.75218  0.81724  0.04893  1.0000
  P   P3174     1.0  0.75513  0.83183  0.12016  1.0000
  P   P3175     1.0  0.70945  0.81789  0.12041  1.0000
  P   P3176     1.0  0.71155  0.83207  0.05174  1.0000
  P   P3177     1.0  0.70101  0.81837  0.05056  1.0000
  P   P3178     1.0  0.70417  0.83298  0.12203  1.0000
  P   P3179     1.0  0.65851  0.81903  0.12246  1.0000
  P   P3180     1.0  0.66071  0.83328  0.05395  1.0000
  P   P3181     1.0  0.65009  0.81957  0.05276  1.0000
  P   P3182     1.0  0.65330  0.83410  0.12441  1.0000
  P   P3183     1.0  0.60758  0.82011  0.12495  1.0000
  P   P3184     1.0  0.60975  0.83423  0.05594  1.0000
  P   P3185     1.0  0.59909  0.82050  0.05504  1.0000
  P   P3186     1.0  0.60231  0.83507  0.12638  1.0000
  P   P3187     1.0  0.55656  0.82104  0.12652  1.0000
  P   P3188     1.0  0.55899  0.83509  0.05632  1.0000
  P   P3189     1.0  0.54834  0.82138  0.05616  1.0000
  P   P3190     1.0  0.55105  0.83579  0.12656  1.0000
  P   P3191     1.0  0.50530  0.82175  0.12591  1.0000
  P   P3192     1.0  0.50815  0.83579  0.05480  1.0000
  P   P3193     1.0  0.49758  0.82211  0.05500  1.0000
  P   P3194     1.0  0.49928  0.83610  0.12500  1.0000
  P   P3195     1.0  0.45350  0.82203  0.12401  1.0000
  P   P3196     1.0  0.45621  0.83593  0.05296  1.0000
  P   P3197     1.0  0.44571  0.82228  0.05291  1.0000
  P   P3198     1.0  0.44688  0.83603  0.12319  1.0000
  P   P3199     1.0  0.40106  0.82194  0.12221  1.0000
  P   P3200     1.0  0.40343  0.83570  0.05147  1.0000
  P   P3201     1.0  0.39294  0.82205  0.05117  1.0000
  P   P3202     1.0  0.39395  0.83570  0.12177  1.0000
  P   P3203     1.0  0.34810  0.82161  0.12093  1.0000
  P   P3204     1.0  0.35017  0.83526  0.05048  1.0000
  P   P3205     1.0  0.33968  0.82162  0.04999  1.0000
  P   P3206     1.0  0.34067  0.83522  0.12086  1.0000
  P   P3207     1.0  0.29480  0.82112  0.12017  1.0000
  P   P3208     1.0  0.29667  0.83471  0.04995  1.0000
  P   P3209     1.0  0.28618  0.82107  0.04933  1.0000
  P   P3210     1.0  0.28717  0.83465  0.12038  1.0000
  P   P3211     1.0  0.24130  0.82055  0.11982  1.0000
  P   P3212     1.0  0.24302  0.83411  0.04977  1.0000
  P   P3213     1.0  0.23253  0.82047  0.04905  1.0000
  P   P3214     1.0  0.23353  0.83404  0.12023  1.0000
  P   P3215     1.0  0.18766  0.81994  0.11975  1.0000
  P   P3216     1.0  0.18930  0.83348  0.04980  1.0000
  P   P3217     1.0  0.17880  0.81983  0.04904  1.0000
  P   P3218     1.0  0.17982  0.83340  0.12027  1.0000
  P   P3219     1.0  0.13395  0.81931  0.11985  1.0000
  P   P3220     1.0  0.13553  0.83283  0.04993  1.0000
  P   P3221     1.0  0.12503  0.81919  0.04916  1.0000
  P   P3222     1.0  0.12606  0.83276  0.12040  1.0000
  P   P3223     1.0  0.08019  0.81867  0.11999  1.0000
  P   P3224     1.0  0.08175  0.83219  0.05007  1.0000
  P   P3225     1.0  0.07125  0.81855  0.04932  1.0000
  P   P3226     1.0  0.07229  0.83214  0.12051  1.0000
  P   P3227     1.0  0.02643  0.81805  0.12009  1.0000
  P   P3228     1.0  0.02798  0.83157  0.05011  1.0000
  P   P3229     1.0  0.01749  0.81792  0.04941  1.0000
  P   P3230     1.0  0.01856  0.83154  0.12051  1.0000
  P   P3231     1.0  0.97023  0.79033  0.12023  1.0000
  P   P3232     1.0  0.97176  0.80384  0.05024  1.0000
  P   P3233     1.0  0.96127  0.79020  0.04955  1.0000
  P   P3234     1.0  0.96237  0.80384  0.12064  1.0000
  P   P3235     1.0  0.91652  0.78976  0.12021  1.0000
  P   P3236     1.0  0.91807  0.80327  0.05012  1.0000
  P   P3237     1.0  0.90758  0.78963  0.04951  1.0000
  P   P3238     1.0  0.90877  0.80333  0.12046  1.0000
  P   P3239     1.0  0.86293  0.78927  0.11997  1.0000
  P   P3240     1.0  0.86451  0.80280  0.04979  1.0000
  P   P3241     1.0  0.85402  0.78915  0.04926  1.0000
  P   P3242     1.0  0.85542  0.80299  0.12006  1.0000
  P   P3243     1.0  0.80961  0.78895  0.11954  1.0000
  P   P3244     1.0  0.81123  0.80252  0.04937  1.0000
  P   P3245     1.0  0.80072  0.78886  0.04886  1.0000
  P   P3246     1.0  0.80257  0.80294  0.11957  1.0000
  P   P3247     1.0  0.75680  0.78894  0.11918  1.0000
  P   P3248     1.0  0.75848  0.80262  0.04929  1.0000
  P   P3249     1.0  0.74797  0.78894  0.04863  1.0000
  P   P3250     1.0  0.75046  0.80335  0.11946  1.0000
  P   P3251     1.0  0.70474  0.78939  0.11941  1.0000
  P   P3252     1.0  0.70664  0.80332  0.05015  1.0000
  P   P3253     1.0  0.69612  0.78963  0.04916  1.0000
  P   P3254     1.0  0.69904  0.80421  0.12035  1.0000
  P   P3255     1.0  0.65336  0.79028  0.12061  1.0000
  P   P3256     1.0  0.65548  0.80444  0.05186  1.0000
  P   P3257     1.0  0.64492  0.79075  0.05073  1.0000
  P   P3258     1.0  0.64804  0.80533  0.12215  1.0000
  P   P3259     1.0  0.60237  0.79138  0.12255  1.0000
  P   P3260     1.0  0.60459  0.80561  0.05395  1.0000
  P   P3261     1.0  0.59395  0.79190  0.05281  1.0000
  P   P3262     1.0  0.59712  0.80641  0.12442  1.0000
  P   P3263     1.0  0.55139  0.79241  0.12492  1.0000
  P   P3264     1.0  0.55358  0.80652  0.05587  1.0000
  P   P3265     1.0  0.54291  0.79280  0.05498  1.0000
  P   P3266     1.0  0.54609  0.80734  0.12632  1.0000
  P   P3267     1.0  0.50034  0.79331  0.12641  1.0000
  P   P3268     1.0  0.50280  0.80736  0.05621  1.0000
  P   P3269     1.0  0.49213  0.79365  0.05604  1.0000
  P   P3270     1.0  0.49482  0.80805  0.12646  1.0000
  P   P3271     1.0  0.44907  0.79400  0.12578  1.0000
  P   P3272     1.0  0.45194  0.80805  0.05470  1.0000
  P   P3273     1.0  0.44136  0.79437  0.05488  1.0000
  P   P3274     1.0  0.44305  0.80835  0.12491  1.0000
  P   P3275     1.0  0.39727  0.79428  0.12390  1.0000
  P   P3276     1.0  0.40000  0.80819  0.05288  1.0000
  P   P3277     1.0  0.38950  0.79454  0.05280  1.0000
  P   P3278     1.0  0.39066  0.80828  0.12311  1.0000
  P   P3279     1.0  0.34484  0.79419  0.12212  1.0000
  P   P3280     1.0  0.34721  0.80795  0.05142  1.0000
  P   P3281     1.0  0.33673  0.79431  0.05109  1.0000
  P   P3282     1.0  0.33773  0.80796  0.12172  1.0000
  P   P3283     1.0  0.29188  0.79386  0.12088  1.0000
  P   P3284     1.0  0.29395  0.80751  0.05046  1.0000
  P   P3285     1.0  0.28347  0.79387  0.04995  1.0000
  P   P3286     1.0  0.28445  0.80748  0.12084  1.0000
  P   P3287     1.0  0.23858  0.79337  0.12016  1.0000
  P   P3288     1.0  0.24044  0.80697  0.04996  1.0000
  P   P3289     1.0  0.22996  0.79333  0.04932  1.0000
  P   P3290     1.0  0.23094  0.80691  0.12039  1.0000
  P   P3291     1.0  0.18508  0.79281  0.11984  1.0000
  P   P3292     1.0  0.18679  0.80637  0.04980  1.0000
  P   P3293     1.0  0.17630  0.79273  0.04908  1.0000
  P   P3294     1.0  0.17731  0.80630  0.12026  1.0000
  P   P3295     1.0  0.13144  0.79220  0.11981  1.0000
  P   P3296     1.0  0.13306  0.80574  0.04986  1.0000
  P   P3297     1.0  0.12257  0.79210  0.04910  1.0000
  P   P3298     1.0  0.12360  0.80567  0.12033  1.0000
  P   P3299     1.0  0.07773  0.79157  0.11993  1.0000
  P   P3300     1.0  0.07930  0.80510  0.05002  1.0000
  P   P3301     1.0  0.06881  0.79145  0.04925  1.0000
  P   P3302     1.0  0.06985  0.80504  0.12049  1.0000
  P   P3303     1.0  0.02398  0.79095  0.12011  1.0000
  P   P3304     1.0  0.02552  0.80446  0.05018  1.0000
  P   P3305     1.0  0.01503  0.79082  0.04944  1.0000
  P   P3306     1.0  0.01609  0.80442  0.12062  1.0000
  P   P3307     1.0  0.96778  0.76323  0.12026  1.0000
  P   P3308     1.0  0.96930  0.77673  0.05033  1.0000
  P   P3309     1.0  0.95881  0.76309  0.04960  1.0000
  P   P3310     1.0  0.95990  0.77670  0.12078  1.0000
  P   P3311     1.0  0.91404  0.76262  0.12042  1.0000
  P   P3312     1.0  0.91555  0.77612  0.05042  1.0000
  P   P3313     1.0  0.90506  0.76248  0.04975  1.0000
  P   P3314     1.0  0.90619  0.77613  0.12082  1.0000
  P   P3315     1.0  0.86034  0.76206  0.12042  1.0000
  P   P3316     1.0  0.86187  0.77556  0.05032  1.0000
  P   P3317     1.0  0.85137  0.76192  0.04974  1.0000
  P   P3318     1.0  0.85261  0.77565  0.12066  1.0000
  P   P3319     1.0  0.80678  0.76159  0.12021  1.0000
  P   P3320     1.0  0.80833  0.77511  0.05001  1.0000
  P   P3321     1.0  0.79783  0.76146  0.04951  1.0000
  P   P3322     1.0  0.79929  0.77533  0.12027  1.0000
  P   P3323     1.0  0.75349  0.76130  0.11980  1.0000
  P   P3324     1.0  0.75508  0.77486  0.04960  1.0000
  P   P3325     1.0  0.74457  0.76119  0.04913  1.0000
  P   P3326     1.0  0.74648  0.77530  0.11980  1.0000
  P   P3327     1.0  0.70071  0.76131  0.11947  1.0000
  P   P3328     1.0  0.70238  0.77499  0.04955  1.0000
  P   P3329     1.0  0.69187  0.76131  0.04893  1.0000
  P   P3330     1.0  0.69439  0.77573  0.11971  1.0000
  P   P3331     1.0  0.64867  0.76179  0.11970  1.0000
  P   P3332     1.0  0.65058  0.77572  0.05039  1.0000
  P   P3333     1.0  0.64006  0.76204  0.04946  1.0000
  P   P3334     1.0  0.64294  0.77659  0.12059  1.0000
  P   P3335     1.0  0.59726  0.76267  0.12084  1.0000
  P   P3336     1.0  0.59940  0.77682  0.05199  1.0000
  P   P3337     1.0  0.58883  0.76312  0.05094  1.0000
  P   P3338     1.0  0.59189  0.77767  0.12227  1.0000
  P   P3339     1.0  0.54621  0.76372  0.12263  1.0000
  P   P3340     1.0  0.54845  0.77794  0.05394  1.0000
  P   P3341     1.0  0.53780  0.76423  0.05284  1.0000
  P   P3342     1.0  0.54091  0.77871  0.12441  1.0000
  P   P3343     1.0  0.49517  0.76471  0.12487  1.0000
  P   P3344     1.0  0.49740  0.77881  0.05577  1.0000
  P   P3345     1.0  0.48671  0.76508  0.05488  1.0000
  P   P3346     1.0  0.48985  0.77960  0.12622  1.0000
  P   P3347     1.0  0.44409  0.76557  0.12626  1.0000
  P   P3348     1.0  0.44658  0.77962  0.05606  1.0000
  P   P3349     1.0  0.43590  0.76591  0.05587  1.0000
  P   P3350     1.0  0.43857  0.78029  0.12631  1.0000
  P   P3351     1.0  0.39282  0.76624  0.12560  1.0000
  P   P3352     1.0  0.39572  0.78030  0.05455  1.0000
  P   P3353     1.0  0.38513  0.76662  0.05470  1.0000
  P   P3354     1.0  0.38682  0.78060  0.12476  1.0000
  P   P3355     1.0  0.34103  0.76652  0.12373  1.0000
  P   P3356     1.0  0.34378  0.78044  0.05275  1.0000
  P   P3357     1.0  0.33328  0.76679  0.05265  1.0000
  P   P3358     1.0  0.33444  0.78054  0.12299  1.0000
  P   P3359     1.0  0.28862  0.76644  0.12199  1.0000
  P   P3360     1.0  0.29099  0.78021  0.05133  1.0000
  P   P3361     1.0  0.28052  0.76657  0.05097  1.0000
  P   P3362     1.0  0.28152  0.78021  0.12164  1.0000
  P   P3363     1.0  0.23567  0.76611  0.12080  1.0000
  P   P3364     1.0  0.23773  0.77977  0.05042  1.0000
  P   P3365     1.0  0.22726  0.76613  0.04988  1.0000
  P   P3366     1.0  0.22824  0.77974  0.12081  1.0000
  P   P3367     1.0  0.18238  0.76563  0.12013  1.0000
  P   P3368     1.0  0.18422  0.77923  0.04997  1.0000
  P   P3369     1.0  0.17374  0.76559  0.04931  1.0000
  P   P3370     1.0  0.17474  0.77917  0.12040  1.0000
  P   P3371     1.0  0.12887  0.76507  0.11987  1.0000
  P   P3372     1.0  0.13056  0.77863  0.04985  1.0000
  P   P3373     1.0  0.12009  0.76499  0.04912  1.0000
  P   P3374     1.0  0.12110  0.77857  0.12031  1.0000
  P   P3375     1.0  0.07524  0.76447  0.11988  1.0000
  P   P3376     1.0  0.07684  0.77800  0.04994  1.0000
  P   P3377     1.0  0.06635  0.76436  0.04918  1.0000
  P   P3378     1.0  0.06740  0.77794  0.12042  1.0000
  P   P3379     1.0  0.02153  0.76385  0.12005  1.0000
  P   P3380     1.0  0.02307  0.77736  0.05014  1.0000
  P   P3381     1.0  0.01258  0.76372  0.04938  1.0000
  P   P3382     1.0  0.01365  0.77731  0.12061  1.0000
  P   P3383     1.0  0.96533  0.73612  0.12020  1.0000
  P   P3384     1.0  0.96685  0.74963  0.05029  1.0000
  P   P3385     1.0  0.95637  0.73599  0.04953  1.0000
  P   P3386     1.0  0.95746  0.74960  0.12077  1.0000
  P   P3387     1.0  0.91159  0.73551  0.12046  1.0000
  P   P3388     1.0  0.91308  0.74901  0.05053  1.0000
  P   P3389     1.0  0.90259  0.73537  0.04981  1.0000
  P   P3390     1.0  0.90372  0.74899  0.12098  1.0000
  P   P3391     1.0  0.85786  0.73491  0.12066  1.0000
  P   P3392     1.0  0.85934  0.74841  0.05065  1.0000
  P   P3393     1.0  0.84885  0.73476  0.05000  1.0000
  P   P3394     1.0  0.85002  0.74843  0.12106  1.0000
  P   P3395     1.0  0.80418  0.73437  0.12071  1.0000
  P   P3396     1.0  0.80567  0.74786  0.05059  1.0000
  P   P3397     1.0  0.79518  0.73422  0.05003  1.0000
  P   P3398     1.0  0.79646  0.74797  0.12093  1.0000
  P   P3399     1.0  0.75063  0.73392  0.12053  1.0000
  P   P3400     1.0  0.75216  0.74742  0.05030  1.0000
  P   P3401     1.0  0.74166  0.73377  0.04984  1.0000
  P   P3402     1.0  0.74317  0.74767  0.12056  1.0000
  P   P3403     1.0  0.69737  0.73365  0.12015  1.0000
  P   P3404     1.0  0.69894  0.74720  0.04993  1.0000
  P   P3405     1.0  0.68843  0.73354  0.04949  1.0000
  P   P3406     1.0  0.69039  0.74768  0.12011  1.0000
  P   P3407     1.0  0.64463  0.73370  0.11984  1.0000
  P   P3408     1.0  0.64629  0.74738  0.04990  1.0000
  P   P3409     1.0  0.63578  0.73370  0.04931  1.0000
  P   P3410     1.0  0.63831  0.74813  0.12005  1.0000
  P   P3411     1.0  0.59260  0.73420  0.12007  1.0000
  P   P3412     1.0  0.59452  0.74813  0.05069  1.0000
  P   P3413     1.0  0.58399  0.73445  0.04983  1.0000
  P   P3414     1.0  0.58682  0.74897  0.12088  1.0000
  P   P3415     1.0  0.54114  0.73505  0.12110  1.0000
  P   P3416     1.0  0.54330  0.74920  0.05213  1.0000
  P   P3417     1.0  0.53272  0.73550  0.05116  1.0000
  P   P3418     1.0  0.53571  0.75001  0.12241  1.0000
  P   P3419     1.0  0.49002  0.73606  0.12271  1.0000
  P   P3420     1.0  0.49229  0.75026  0.05391  1.0000
  P   P3421     1.0  0.48163  0.73654  0.05286  1.0000
  P   P3422     1.0  0.48467  0.75099  0.12437  1.0000
  P   P3423     1.0  0.43893  0.73699  0.12477  1.0000
  P   P3424     1.0  0.44119  0.75109  0.05561  1.0000
  P   P3425     1.0  0.43049  0.73736  0.05473  1.0000
  P   P3426     1.0  0.43358  0.75185  0.12606  1.0000
  P   P3427     1.0  0.38781  0.73781  0.12604  1.0000
  P   P3428     1.0  0.39035  0.75188  0.05585  1.0000
  P   P3429     1.0  0.37965  0.73815  0.05563  1.0000
  P   P3430     1.0  0.38231  0.75253  0.12611  1.0000
  P   P3431     1.0  0.33655  0.73848  0.12536  1.0000
  P   P3432     1.0  0.33948  0.75255  0.05434  1.0000
  P   P3433     1.0  0.32888  0.73886  0.05446  1.0000
  P   P3434     1.0  0.33058  0.75284  0.12456  1.0000
  P   P3435     1.0  0.28479  0.73876  0.12352  1.0000
  P   P3436     1.0  0.28756  0.75269  0.05258  1.0000
  P   P3437     1.0  0.27706  0.73904  0.05244  1.0000
  P   P3438     1.0  0.27822  0.75278  0.12283  1.0000
  P   P3439     1.0  0.23240  0.73869  0.12183  1.0000
  P   P3440     1.0  0.23478  0.75247  0.05121  1.0000
  P   P3441     1.0  0.22431  0.73883  0.05082  1.0000
  P   P3442     1.0  0.22532  0.75247  0.12153  1.0000
  P   P3443     1.0  0.17947  0.73837  0.12070  1.0000
  P   P3444     1.0  0.18152  0.75203  0.05037  1.0000
  P   P3445     1.0  0.17106  0.73840  0.04980  1.0000
  P   P3446     1.0  0.17204  0.75200  0.12076  1.0000
  P   P3447     1.0  0.12618  0.73790  0.12010  1.0000
  P   P3448     1.0  0.12800  0.75149  0.04997  1.0000
  P   P3449     1.0  0.11754  0.73786  0.04929  1.0000
  P   P3450     1.0  0.11854  0.75144  0.12041  1.0000
  P   P3451     1.0  0.07268  0.73734  0.11990  1.0000
  P   P3452     1.0  0.07435  0.75089  0.04991  1.0000
  P   P3453     1.0  0.06388  0.73726  0.04917  1.0000
  P   P3454     1.0  0.06491  0.75084  0.12038  1.0000
  P   P3455     1.0  0.01904  0.73674  0.11997  1.0000
  P   P3456     1.0  0.02062  0.75027  0.05005  1.0000
  P   P3457     1.0  0.01014  0.73663  0.04928  1.0000
  P   P3458     1.0  0.01120  0.75022  0.12054  1.0000
  P   P3459     1.0  0.96286  0.70902  0.12009  1.0000
  P   P3460     1.0  0.96441  0.72254  0.05019  1.0000
  P   P3461     1.0  0.95394  0.70890  0.04942  1.0000
  P   P3462     1.0  0.95502  0.72250  0.12068  1.0000
  P   P3463     1.0  0.90915  0.70841  0.12038  1.0000
  P   P3464     1.0  0.91064  0.72191  0.05049  1.0000
  P   P3465     1.0  0.90016  0.70827  0.04973  1.0000
  P   P3466     1.0  0.90127  0.72188  0.12098  1.0000
  P   P3467     1.0  0.85541  0.70780  0.12071  1.0000
  P   P3468     1.0  0.85687  0.72129  0.05078  1.0000
  P   P3469     1.0  0.84639  0.70765  0.05007  1.0000
  P   P3470     1.0  0.84754  0.72129  0.12124  1.0000
  P   P3471     1.0  0.80169  0.70721  0.12097  1.0000
  P   P3472     1.0  0.80314  0.72070  0.05095  1.0000
  P   P3473     1.0  0.79265  0.70705  0.05032  1.0000
  P   P3474     1.0  0.79386  0.72074  0.12137  1.0000
  P   P3475     1.0  0.74802  0.70668  0.12106  1.0000
  P   P3476     1.0  0.74948  0.72017  0.05093  1.0000
  P   P3477     1.0  0.73899  0.70652  0.05040  1.0000
  P   P3478     1.0  0.74032  0.72029  0.12127  1.0000
  P   P3479     1.0  0.69450  0.70626  0.12093  1.0000
  P   P3480     1.0  0.69599  0.71975  0.05068  1.0000
  P   P3481     1.0  0.68549  0.70610  0.05025  1.0000
  P   P3482     1.0  0.68706  0.72003  0.12093  1.0000
  P   P3483     1.0  0.64127  0.70602  0.12059  1.0000
  P   P3484     1.0  0.64280  0.71956  0.05034  1.0000
  P   P3485     1.0  0.63230  0.70590  0.04994  1.0000
  P   P3486     1.0  0.63431  0.72007  0.12051  1.0000
  P   P3487     1.0  0.58856  0.70610  0.12031  1.0000
  P   P3488     1.0  0.59022  0.71978  0.05033  1.0000
  P   P3489     1.0  0.57971  0.70611  0.04979  1.0000
  P   P3490     1.0  0.58222  0.72053  0.12046  1.0000
  P   P3491     1.0  0.53652  0.70661  0.12052  1.0000
  P   P3492     1.0  0.53846  0.72055  0.05104  1.0000
  P   P3493     1.0  0.52793  0.70686  0.05027  1.0000
  P   P3494     1.0  0.53068  0.72135  0.12121  1.0000
  P   P3495     1.0  0.48500  0.70744  0.12140  1.0000
  P   P3496     1.0  0.48719  0.72158  0.05228  1.0000
  P   P3497     1.0  0.47660  0.70787  0.05141  1.0000
  P   P3498     1.0  0.47949  0.72234  0.12254  1.0000
  P   P3499     1.0  0.43380  0.70839  0.12277  1.0000
  P   P3500     1.0  0.43610  0.72258  0.05384  1.0000
  P   P3501     1.0  0.42543  0.70885  0.05285  1.0000
  P   P3502     1.0  0.42839  0.72327  0.12429  1.0000
  P   P3503     1.0  0.38264  0.70926  0.12462  1.0000
  P   P3504     1.0  0.38496  0.72336  0.05539  1.0000
  P   P3505     1.0  0.37423  0.70962  0.05452  1.0000
  P   P3506     1.0  0.37728  0.72409  0.12584  1.0000
  P   P3507     1.0  0.33150  0.71005  0.12575  1.0000
  P   P3508     1.0  0.33409  0.72412  0.05557  1.0000
  P   P3509     1.0  0.32337  0.71039  0.05531  1.0000
  P   P3510     1.0  0.32602  0.72476  0.12583  1.0000
  P   P3511     1.0  0.28025  0.71070  0.12506  1.0000
  P   P3512     1.0  0.28323  0.72478  0.05407  1.0000
  P   P3513     1.0  0.27260  0.71109  0.05416  1.0000
  P   P3514     1.0  0.27433  0.72507  0.12431  1.0000
  P   P3515     1.0  0.22853  0.71099  0.12325  1.0000
  P   P3516     1.0  0.23134  0.72494  0.05236  1.0000
  P   P3517     1.0  0.22082  0.71128  0.05218  1.0000
  P   P3518     1.0  0.22201  0.72503  0.12262  1.0000
  P   P3519     1.0  0.17618  0.71093  0.12163  1.0000
  P   P3520     1.0  0.17857  0.72472  0.05107  1.0000
  P   P3521     1.0  0.16810  0.71108  0.05063  1.0000
  P   P3522     1.0  0.16912  0.72473  0.12140  1.0000
  P   P3523     1.0  0.12328  0.71062  0.12058  1.0000
  P   P3524     1.0  0.12532  0.72429  0.05030  1.0000
  P   P3525     1.0  0.11486  0.71066  0.04970  1.0000
  P   P3526     1.0  0.11586  0.72426  0.12070  1.0000
  P   P3527     1.0  0.07000  0.71016  0.12007  1.0000
  P   P3528     1.0  0.07180  0.72376  0.04998  1.0000
  P   P3529     1.0  0.06135  0.71012  0.04928  1.0000
  P   P3530     1.0  0.06236  0.72371  0.12043  1.0000
  P   P3531     1.0  0.01650  0.70961  0.11995  1.0000
  P   P3532     1.0  0.01814  0.72316  0.04998  1.0000
  P   P3533     1.0  0.00768  0.70953  0.04923  1.0000
  P   P3534     1.0  0.00873  0.72311  0.12046  1.0000
  P   P3535     1.0  0.00517  0.68239  0.04927  1.0000
  P   P3536     1.0  0.96033  0.68189  0.12002  1.0000
  P   P3537     1.0  0.96195  0.69543  0.05008  1.0000
  P   P3538     1.0  0.95150  0.68180  0.04932  1.0000
  P   P3539     1.0  0.95256  0.69539  0.12058  1.0000
  P   P3540     1.0  0.90670  0.68130  0.12025  1.0000
  P   P3541     1.0  0.90821  0.69481  0.05037  1.0000
  P   P3542     1.0  0.89775  0.68118  0.04959  1.0000
  P   P3543     1.0  0.89884  0.69478  0.12087  1.0000
  P   P3544     1.0  0.85298  0.68069  0.12061  1.0000
  P   P3545     1.0  0.85444  0.69419  0.05073  1.0000
  P   P3546     1.0  0.84396  0.68055  0.04998  1.0000
  P   P3547     1.0  0.84510  0.69417  0.12123  1.0000
  P   P3548     1.0  0.79924  0.68009  0.12101  1.0000
  P   P3549     1.0  0.80067  0.69357  0.05108  1.0000
  P   P3550     1.0  0.79019  0.67994  0.05038  1.0000
  P   P3551     1.0  0.79137  0.69359  0.12155  1.0000
  P   P3552     1.0  0.74552  0.67952  0.12134  1.0000
  P   P3553     1.0  0.74694  0.69299  0.05132  1.0000
  P   P3554     1.0  0.73645  0.67935  0.05070  1.0000
  P   P3555     1.0  0.73771  0.69306  0.12174  1.0000
  P   P3556     1.0  0.69187  0.67901  0.12150  1.0000
  P   P3557     1.0  0.69330  0.69248  0.05135  1.0000
  P   P3558     1.0  0.68281  0.67883  0.05084  1.0000
  P   P3559     1.0  0.68419  0.69263  0.12170  1.0000
  P   P3560     1.0  0.63838  0.67860  0.12142  1.0000
  P   P3561     1.0  0.63983  0.69209  0.05115  1.0000
  P   P3562     1.0  0.62933  0.67844  0.05075  1.0000
  P   P3563     1.0  0.63097  0.69239  0.12140  1.0000
  P   P3564     1.0  0.58518  0.67840  0.12113  1.0000
  P   P3565     1.0  0.58669  0.69194  0.05085  1.0000
  P   P3566     1.0  0.57619  0.67827  0.05050  1.0000
  P   P3567     1.0  0.57824  0.69247  0.12102  1.0000
  P   P3568     1.0  0.53250  0.67852  0.12089  1.0000
  P   P3569     1.0  0.53416  0.69221  0.05085  1.0000
  P   P3570     1.0  0.52365  0.67853  0.05038  1.0000
  P   P3571     1.0  0.52613  0.69294  0.12097  1.0000
  P   P3572     1.0  0.48043  0.67903  0.12105  1.0000
  P   P3573     1.0  0.48240  0.69298  0.05144  1.0000
  P   P3574     1.0  0.47186  0.67929  0.05079  1.0000
  P   P3575     1.0  0.47452  0.69373  0.12159  1.0000
  P   P3576     1.0  0.42884  0.67983  0.12172  1.0000
  P   P3577     1.0  0.43106  0.69395  0.05244  1.0000
  P   P3578     1.0  0.42046  0.68024  0.05168  1.0000
  P   P3579     1.0  0.42324  0.69467  0.12267  1.0000
  P   P3580     1.0  0.37754  0.68072  0.12281  1.0000
  P   P3581     1.0  0.37989  0.69488  0.05372  1.0000
  P   P3582     1.0  0.36920  0.68116  0.05280  1.0000
  P   P3583     1.0  0.37208  0.69553  0.12417  1.0000
  P   P3584     1.0  0.32631  0.68152  0.12440  1.0000
  P   P3585     1.0  0.32870  0.69561  0.05510  1.0000
  P   P3586     1.0  0.31795  0.68187  0.05425  1.0000
  P   P3587     1.0  0.32094  0.69632  0.12554  1.0000
  P   P3588     1.0  0.27515  0.68227  0.12538  1.0000
  P   P3589     1.0  0.27780  0.69634  0.05521  1.0000
  P   P3590     1.0  0.26705  0.68261  0.05492  1.0000
  P   P3591     1.0  0.26971  0.69697  0.12548  1.0000
  P   P3592     1.0  0.22393  0.68291  0.12468  1.0000
  P   P3593     1.0  0.22695  0.69701  0.05375  1.0000
  P   P3594     1.0  0.21629  0.68330  0.05379  1.0000
  P   P3595     1.0  0.21806  0.69730  0.12399  1.0000
  P   P3596     1.0  0.17226  0.68321  0.12294  1.0000
  P   P3597     1.0  0.17510  0.69718  0.05209  1.0000
  P   P3598     1.0  0.16457  0.68352  0.05188  1.0000
  P   P3599     1.0  0.16579  0.69727  0.12237  1.0000
  P   P3600     1.0  0.11996  0.68317  0.12140  1.0000
  P   P3601     1.0  0.12237  0.69698  0.05089  1.0000
  P   P3602     1.0  0.11190  0.68333  0.05041  1.0000
  P   P3603     1.0  0.11294  0.69699  0.12124  1.0000
  P   P3604     1.0  0.06709  0.68288  0.12045  1.0000
  P   P3605     1.0  0.06913  0.69656  0.05022  1.0000
  P   P3606     1.0  0.05868  0.68292  0.04958  1.0000
  P   P3607     1.0  0.05969  0.69653  0.12064  1.0000
  P   P3608     1.0  0.01383  0.68243  0.12004  1.0000
  P   P3609     1.0  0.01561  0.69602  0.04999  1.0000
  P   P3610     1.0  0.00620  0.69599  0.12046  1.0000
  P   P3611     1.0  0.00249  0.65519  0.04947  1.0000
  P   P3612     1.0  0.00353  0.66880  0.12058  1.0000
  P   P3613     1.0  0.95768  0.65470  0.12003  1.0000
  P   P3614     1.0  0.95943  0.66829  0.05002  1.0000
  P   P3615     1.0  0.94899  0.65467  0.04928  1.0000
  P   P3616     1.0  0.95004  0.66826  0.12050  1.0000
  P   P3617     1.0  0.90418  0.65417  0.12012  1.0000
  P   P3618     1.0  0.90577  0.66771  0.05021  1.0000
  P   P3619     1.0  0.89532  0.65408  0.04943  1.0000
  P   P3620     1.0  0.89640  0.66768  0.12072  1.0000
  P   P3621     1.0  0.85054  0.65358  0.12044  1.0000
  P   P3622     1.0  0.85202  0.66709  0.05058  1.0000
  P   P3623     1.0  0.84157  0.65346  0.04981  1.0000
  P   P3624     1.0  0.84268  0.66707  0.12109  1.0000
  P   P3625     1.0  0.79682  0.65298  0.12089  1.0000
  P   P3626     1.0  0.79824  0.66647  0.05103  1.0000
  P   P3627     1.0  0.78777  0.65284  0.05028  1.0000
  P   P3628     1.0  0.78893  0.66647  0.12153  1.0000
  P   P3629     1.0  0.74307  0.65239  0.12137  1.0000
  P   P3630     1.0  0.74447  0.66587  0.05145  1.0000
  P   P3631     1.0  0.73399  0.65223  0.05076  1.0000
  P   P3632     1.0  0.73520  0.66589  0.12192  1.0000
  P   P3633     1.0  0.68936  0.65183  0.12177  1.0000
  P   P3634     1.0  0.69075  0.66530  0.05176  1.0000
  P   P3635     1.0  0.68026  0.65166  0.05115  1.0000
  P   P3636     1.0  0.68155  0.66538  0.12218  1.0000
  P   P3637     1.0  0.63572  0.65134  0.12201  1.0000
  P   P3638     1.0  0.63713  0.66480  0.05186  1.0000
  P   P3639     1.0  0.62663  0.65116  0.05137  1.0000
  P   P3640     1.0  0.62806  0.66498  0.12220  1.0000
  P   P3641     1.0  0.58226  0.65096  0.12200  1.0000
  P   P3642     1.0  0.58369  0.66444  0.05172  1.0000
  P   P3643     1.0  0.57319  0.65079  0.05135  1.0000
  P   P3644     1.0  0.57487  0.66477  0.12196  1.0000
  P   P3645     1.0  0.52910  0.65080  0.12177  1.0000
  P   P3646     1.0  0.53059  0.66433  0.05147  1.0000
  P   P3647     1.0  0.52009  0.65067  0.05116  1.0000
  P   P3648     1.0  0.52216  0.66488  0.12163  1.0000
  P   P3649     1.0  0.47644  0.65095  0.12157  1.0000
  P   P3650     1.0  0.47811  0.66465  0.05147  1.0000
  P   P3651     1.0  0.46761  0.65098  0.05108  1.0000
  P   P3652     1.0  0.47002  0.66536  0.12157  1.0000
  P   P3653     1.0  0.42433  0.65146  0.12165  1.0000
  P   P3654     1.0  0.42633  0.66541  0.05189  1.0000
  P   P3655     1.0  0.41579  0.65172  0.05137  1.0000
  P   P3656     1.0  0.41832  0.66611  0.12201  1.0000
  P   P3657     1.0  0.37264  0.65221  0.12207  1.0000
  P   P3658     1.0  0.37492  0.66632  0.05258  1.0000
  P   P3659     1.0  0.36429  0.65261  0.05195  1.0000
  P   P3660     1.0  0.36695  0.66698  0.12279  1.0000
  P   P3661     1.0  0.32124  0.65303  0.12282  1.0000
  P   P3662     1.0  0.32365  0.66718  0.05356  1.0000
  P   P3663     1.0  0.31293  0.65345  0.05272  1.0000
  P   P3664     1.0  0.31571  0.66778  0.12398  1.0000
  P   P3665     1.0  0.26994  0.65376  0.12411  1.0000
  P   P3666     1.0  0.27240  0.66786  0.05473  1.0000
  P   P3667     1.0  0.26162  0.65411  0.05389  1.0000
  P   P3668     1.0  0.26455  0.66852  0.12516  1.0000
  P   P3669     1.0  0.21876  0.65447  0.12493  1.0000
  P   P3670     1.0  0.22147  0.66856  0.05477  1.0000
  P   P3671     1.0  0.21068  0.65481  0.05443  1.0000
  P   P3672     1.0  0.21335  0.66917  0.12505  1.0000
  P   P3673     1.0  0.16757  0.65510  0.12424  1.0000
  P   P3674     1.0  0.17063  0.66922  0.05336  1.0000
  P   P3675     1.0  0.15993  0.65550  0.05336  1.0000
  P   P3676     1.0  0.16177  0.66951  0.12362  1.0000
  P   P3677     1.0  0.11597  0.65542  0.12258  1.0000
  P   P3678     1.0  0.11885  0.66941  0.05178  1.0000
  P   P3679     1.0  0.10829  0.65574  0.05154  1.0000
  P   P3680     1.0  0.10957  0.66951  0.12209  1.0000
  P   P3681     1.0  0.06374  0.65541  0.12114  1.0000
  P   P3682     1.0  0.06616  0.66923  0.05069  1.0000
  P   P3683     1.0  0.05568  0.65558  0.05018  1.0000
  P   P3684     1.0  0.05676  0.66924  0.12106  1.0000
  P   P3685     1.0  0.01092  0.65514  0.12032  1.0000
  P   P3686     1.0  0.01294  0.66882  0.05014  1.0000
  P   P3687     1.0  0.00750  0.62765  0.12090  1.0000
  P   P3688     1.0  0.99945  0.62782  0.04995  1.0000
  P   P3689     1.0  0.00058  0.64150  0.12088  1.0000
  P   P3690     1.0  0.95474  0.62740  0.12021  1.0000
  P   P3691     1.0  0.95676  0.64109  0.05007  1.0000
  P   P3692     1.0  0.94631  0.62745  0.04939  1.0000
  P   P3693     1.0  0.94738  0.64108  0.12053  1.0000
  P   P3694     1.0  0.90153  0.62698  0.12005  1.0000
  P   P3695     1.0  0.90326  0.64057  0.05008  1.0000
  P   P3696     1.0  0.89283  0.62694  0.04932  1.0000
  P   P3697     1.0  0.89390  0.64055  0.12057  1.0000
  P   P3698     1.0  0.84804  0.62645  0.12026  1.0000
  P   P3699     1.0  0.84960  0.63999  0.05038  1.0000
  P   P3700     1.0  0.83916  0.62636  0.04960  1.0000
  P   P3701     1.0  0.84025  0.63996  0.12089  1.0000
  P   P3702     1.0  0.79439  0.62588  0.12069  1.0000
  P   P3703     1.0  0.79584  0.63938  0.05084  1.0000
  P   P3704     1.0  0.78539  0.62575  0.05007  1.0000
  P   P3705     1.0  0.78651  0.63936  0.12136  1.0000
  P   P3706     1.0  0.74066  0.62528  0.12123  1.0000
  P   P3707     1.0  0.74206  0.63877  0.05138  1.0000
  P   P3708     1.0  0.73159  0.62513  0.05064  1.0000
  P   P3709     1.0  0.73275  0.63876  0.12188  1.0000
  P   P3710     1.0  0.68690  0.62470  0.12179  1.0000
  P   P3711     1.0  0.68829  0.63817  0.05188  1.0000
  P   P3712     1.0  0.67780  0.62453  0.05120  1.0000
  P   P3713     1.0  0.67902  0.63820  0.12235  1.0000
  P   P3714     1.0  0.63318  0.62415  0.12228  1.0000
  P   P3715     1.0  0.63457  0.63762  0.05226  1.0000
  P   P3716     1.0  0.62406  0.62397  0.05168  1.0000
  P   P3717     1.0  0.62539  0.63771  0.12269  1.0000
  P   P3718     1.0  0.57956  0.62368  0.12259  1.0000
  P   P3719     1.0  0.58097  0.63715  0.05244  1.0000
  P   P3720     1.0  0.57045  0.62350  0.05197  1.0000
  P   P3721     1.0  0.57192  0.63733  0.12278  1.0000
  P   P3722     1.0  0.52613  0.62333  0.12267  1.0000
  P   P3723     1.0  0.52756  0.63682  0.05238  1.0000
  P   P3724     1.0  0.51705  0.62316  0.05203  1.0000
  P   P3725     1.0  0.51877  0.63716  0.12262  1.0000
  P   P3726     1.0  0.47301  0.62321  0.12252  1.0000
  P   P3727     1.0  0.47452  0.63676  0.05219  1.0000
  P   P3728     1.0  0.46401  0.62309  0.05192  1.0000
  P   P3729     1.0  0.46608  0.63730  0.12234  1.0000
  P   P3730     1.0  0.42036  0.62339  0.12235  1.0000
  P   P3731     1.0  0.42208  0.63712  0.05218  1.0000
  P   P3732     1.0  0.41158  0.62345  0.05187  1.0000
  P   P3733     1.0  0.41388  0.63778  0.12226  1.0000
  P   P3734     1.0  0.36819  0.62390  0.12232  1.0000
  P   P3735     1.0  0.37026  0.63786  0.05239  1.0000
  P   P3736     1.0  0.35971  0.62417  0.05201  1.0000
  P   P3737     1.0  0.36208  0.63849  0.12247  1.0000
  P   P3738     1.0  0.31640  0.62459  0.12242  1.0000
  P   P3739     1.0  0.31875  0.63869  0.05270  1.0000
  P   P3740     1.0  0.30810  0.62498  0.05221  1.0000
  P   P3741     1.0  0.31060  0.63928  0.12287  1.0000
  P   P3742     1.0  0.26488  0.62533  0.12279  1.0000
  P   P3743     1.0  0.26737  0.63947  0.05333  1.0000
  P   P3744     1.0  0.25662  0.62572  0.05258  1.0000
  P   P3745     1.0  0.25929  0.64001  0.12373  1.0000
  P   P3746     1.0  0.21351  0.62599  0.12375  1.0000
  P   P3747     1.0  0.21606  0.64009  0.05428  1.0000
  P   P3748     1.0  0.20524  0.62632  0.05345  1.0000
  P   P3749     1.0  0.20811  0.64071  0.12470  1.0000
  P   P3750     1.0  0.16231  0.62665  0.12439  1.0000
  P   P3751     1.0  0.16509  0.64075  0.05425  1.0000
  P   P3752     1.0  0.15425  0.62698  0.05386  1.0000
  P   P3753     1.0  0.15696  0.64135  0.12455  1.0000
  P   P3754     1.0  0.11117  0.62727  0.12375  1.0000
  P   P3755     1.0  0.11427  0.64141  0.05292  1.0000
  P   P3756     1.0  0.10352  0.62767  0.05288  1.0000
  P   P3757     1.0  0.10545  0.64172  0.12321  1.0000
  P   P3758     1.0  0.05965  0.62762  0.12221  1.0000
  P   P3759     1.0  0.06257  0.64163  0.05145  1.0000
  P   P3760     1.0  0.05198  0.62795  0.05119  1.0000
  P   P3761     1.0  0.05333  0.64175  0.12178  1.0000
  P   P3762     1.0  0.00994  0.64147  0.05049  1.0000
  P   P3763     1.0  0.00329  0.59982  0.12187  1.0000
  P   P3764     1.0  0.00625  0.61384  0.05112  1.0000
  P   P3765     1.0  0.99559  0.60014  0.05087  1.0000
  P   P3766     1.0  0.99707  0.61397  0.12148  1.0000
  P   P3767     1.0  0.95125  0.59988  0.12070  1.0000
  P   P3768     1.0  0.95371  0.61372  0.05031  1.0000
  P   P3769     1.0  0.94319  0.60006  0.04977  1.0000
  P   P3770     1.0  0.94439  0.61376  0.12073  1.0000
  P   P3771     1.0  0.89856  0.59966  0.12016  1.0000
  P   P3772     1.0  0.90058  0.61335  0.05004  1.0000
  P   P3773     1.0  0.89011  0.59972  0.04935  1.0000
  P   P3774     1.0  0.89123  0.61335  0.12051  1.0000
  P   P3775     1.0  0.84538  0.59926  0.12014  1.0000
  P   P3776     1.0  0.84710  0.61286  0.05018  1.0000
  P   P3777     1.0  0.83666  0.59922  0.04943  1.0000
  P   P3778     1.0  0.83774  0.61283  0.12069  1.0000
  P   P3779     1.0  0.79189  0.59875  0.12047  1.0000
  P   P3780     1.0  0.79344  0.61229  0.05060  1.0000
  P   P3781     1.0  0.78299  0.59866  0.04983  1.0000
  P   P3782     1.0  0.78408  0.61225  0.12111  1.0000
  P   P3783     1.0  0.73823  0.59818  0.12100  1.0000
  P   P3784     1.0  0.73968  0.61169  0.05116  1.0000
  P   P3785     1.0  0.72921  0.59805  0.05040  1.0000
  P   P3786     1.0  0.73032  0.61165  0.12168  1.0000
  P   P3787     1.0  0.68448  0.59759  0.12164  1.0000
  P   P3788     1.0  0.68588  0.61108  0.05177  1.0000
  P   P3789     1.0  0.67539  0.59744  0.05106  1.0000
  P   P3790     1.0  0.67655  0.61106  0.12228  1.0000
  P   P3791     1.0  0.63070  0.59702  0.12228  1.0000
  P   P3792     1.0  0.63210  0.61050  0.05236  1.0000
  P   P3793     1.0  0.62158  0.59685  0.05170  1.0000
  P   P3794     1.0  0.62281  0.61051  0.12284  1.0000
  P   P3795     1.0  0.57698  0.59648  0.12285  1.0000
  P   P3796     1.0  0.57839  0.60996  0.05283  1.0000
  P   P3797     1.0  0.56785  0.59630  0.05226  1.0000
  P   P3798     1.0  0.56918  0.61003  0.12325  1.0000
  P   P3799     1.0  0.52337  0.59603  0.12325  1.0000
  P   P3800     1.0  0.52481  0.60951  0.05309  1.0000
  P   P3801     1.0  0.51426  0.59585  0.05264  1.0000
  P   P3802     1.0  0.51575  0.60969  0.12343  1.0000
  P   P3803     1.0  0.46997  0.59572  0.12341  1.0000
  P   P3804     1.0  0.47145  0.60923  0.05311  1.0000
  P   P3805     1.0  0.46090  0.59556  0.05279  1.0000
  P   P3806     1.0  0.46263  0.60956  0.12335  1.0000
  P   P3807     1.0  0.41689  0.59563  0.12335  1.0000
  P   P3808     1.0  0.41846  0.60922  0.05299  1.0000
  P   P3809     1.0  0.40794  0.59555  0.05276  1.0000
  P   P3810     1.0  0.40995  0.60973  0.12313  1.0000
  P   P3811     1.0  0.36425  0.59585  0.12321  1.0000
  P   P3812     1.0  0.36607  0.60962  0.05295  1.0000
  P   P3813     1.0  0.35555  0.59594  0.05273  1.0000
  P   P3814     1.0  0.35769  0.61020  0.12300  1.0000
  P   P3815     1.0  0.31201  0.59633  0.12301  1.0000
  P   P3816     1.0  0.31418  0.61031  0.05289  1.0000
  P   P3817     1.0  0.30361  0.59662  0.05266  1.0000
  P   P3818     1.0  0.30580  0.61086  0.12292  1.0000
  P   P3819     1.0  0.26011  0.59697  0.12274  1.0000
  P   P3820     1.0  0.26255  0.61107  0.05279  1.0000
  P   P3821     1.0  0.25187  0.59734  0.05245  1.0000
  P   P3822     1.0  0.25420  0.61157  0.12292  1.0000
  P   P3823     1.0  0.20847  0.59762  0.12270  1.0000
  P   P3824     1.0  0.21105  0.61174  0.05304  1.0000
  P   P3825     1.0  0.20025  0.59799  0.05240  1.0000
  P   P3826     1.0  0.20280  0.61222  0.12341  1.0000
  P   P3827     1.0  0.15701  0.59820  0.12332  1.0000
  P   P3828     1.0  0.15966  0.61230  0.05374  1.0000
  P   P3829     1.0  0.14878  0.59852  0.05294  1.0000
  P   P3830     1.0  0.15161  0.61288  0.12415  1.0000
  P   P3831     1.0  0.10580  0.59882  0.12379  1.0000
  P   P3832     1.0  0.10864  0.61292  0.05367  1.0000
  P   P3833     1.0  0.09774  0.59914  0.05323  1.0000
  P   P3834     1.0  0.10050  0.61351  0.12399  1.0000
  P   P3835     1.0  0.05470  0.59943  0.12324  1.0000
  P   P3836     1.0  0.05785  0.61358  0.05246  1.0000
  P   P3837     1.0  0.04701  0.59982  0.05240  1.0000
  P   P3838     1.0  0.04909  0.61391  0.12278  1.0000
  P   P3839     1.0  0.99817  0.57158  0.12277  1.0000
  P   P3840     1.0  0.00133  0.58572  0.05202  1.0000
  P   P3841     1.0  0.99039  0.57193  0.05195  1.0000
  P   P3842     1.0  0.99266  0.58608  0.12237  1.0000
  P   P3843     1.0  0.94686  0.57200  0.12163  1.0000
  P   P3844     1.0  0.94987  0.58604  0.05084  1.0000
  P   P3845     1.0  0.93911  0.57230  0.05065  1.0000
  P   P3846     1.0  0.94075  0.58618  0.12124  1.0000
  P   P3847     1.0  0.89494  0.57211  0.12063  1.0000
  P   P3848     1.0  0.89745  0.58596  0.05018  1.0000
  P   P3849     1.0  0.88685  0.57228  0.04971  1.0000
  P   P3850     1.0  0.88816  0.58600  0.12063  1.0000
  P   P3851     1.0  0.84233  0.57193  0.12022  1.0000
  P   P3852     1.0  0.84439  0.58563  0.05007  1.0000
  P   P3853     1.0  0.83387  0.57198  0.04943  1.0000
  P   P3854     1.0  0.83503  0.58562  0.12056  1.0000
  P   P3855     1.0  0.78919  0.57155  0.12034  1.0000
  P   P3856     1.0  0.79094  0.58516  0.05035  1.0000
  P   P3857     1.0  0.78045  0.57151  0.04964  1.0000
  P   P3858     1.0  0.78155  0.58511  0.12085  1.0000
  P   P3859     1.0  0.73570  0.57105  0.12078  1.0000
  P   P3860     1.0  0.73728  0.58460  0.05087  1.0000
  P   P3861     1.0  0.72679  0.57096  0.05015  1.0000
  P   P3862     1.0  0.72786  0.58454  0.12138  1.0000
  P   P3863     1.0  0.68202  0.57049  0.12140  1.0000
  P   P3864     1.0  0.68351  0.58401  0.05152  1.0000
  P   P3865     1.0  0.67299  0.57036  0.05081  1.0000
  P   P3866     1.0  0.67407  0.58394  0.12203  1.0000
  P   P3867     1.0  0.62823  0.56991  0.12212  1.0000
  P   P3868     1.0  0.62970  0.58342  0.05222  1.0000
  P   P3869     1.0  0.61915  0.56976  0.05155  1.0000
  P   P3870     1.0  0.62027  0.58335  0.12272  1.0000
  P   P3871     1.0  0.57443  0.56934  0.12283  1.0000
  P   P3872     1.0  0.57591  0.58285  0.05288  1.0000
  P   P3873     1.0  0.56532  0.56918  0.05227  1.0000
  P   P3874     1.0  0.56651  0.58281  0.12335  1.0000
  P   P3875     1.0  0.52069  0.56882  0.12348  1.0000
  P   P3876     1.0  0.52220  0.58233  0.05343  1.0000
  P   P3877     1.0  0.51158  0.56865  0.05290  1.0000
  P   P3878     1.0  0.51288  0.58235  0.12384  1.0000
  P   P3879     1.0  0.46708  0.56839  0.12396  1.0000
  P   P3880     1.0  0.46864  0.58192  0.05377  1.0000
  P   P3881     1.0  0.45801  0.56823  0.05336  1.0000
  P   P3882     1.0  0.45948  0.58204  0.12411  1.0000
  P   P3883     1.0  0.41371  0.56811  0.12420  1.0000
  P   P3884     1.0  0.41534  0.58168  0.05388  1.0000
  P   P3885     1.0  0.40472  0.56799  0.05359  1.0000
  P   P3886     1.0  0.40641  0.58196  0.12411  1.0000
  P   P3887     1.0  0.36068  0.56807  0.12422  1.0000
  P   P3888     1.0  0.36243  0.58173  0.05382  1.0000
  P   P3889     1.0  0.35184  0.56804  0.05364  1.0000
  P   P3890     1.0  0.35375  0.58215  0.12395  1.0000
  P   P3891     1.0  0.30805  0.56831  0.12406  1.0000
  P   P3892     1.0  0.31006  0.58215  0.05372  1.0000
  P   P3893     1.0  0.29948  0.56846  0.05358  1.0000
  P   P3894     1.0  0.30144  0.58261  0.12374  1.0000
  P   P3895     1.0  0.25576  0.56877  0.12366  1.0000
  P   P3896     1.0  0.25809  0.58278  0.05335  1.0000
  P   P3897     1.0  0.24747  0.56908  0.05326  1.0000
  P   P3898     1.0  0.24945  0.58322  0.12333  1.0000
  P   P3899     1.0  0.20376  0.56934  0.12302  1.0000
  P   P3900     1.0  0.20632  0.58344  0.05283  1.0000
  P   P3901     1.0  0.19559  0.56971  0.05262  1.0000
  P   P3902     1.0  0.19772  0.58385  0.12291  1.0000
  P   P3903     1.0  0.15198  0.56990  0.12258  1.0000
  P   P3904     1.0  0.15467  0.58401  0.05269  1.0000
  P   P3905     1.0  0.14380  0.57024  0.05216  1.0000
  P   P3906     1.0  0.14623  0.58442  0.12303  1.0000
  P   P3907     1.0  0.10043  0.57040  0.12285  1.0000
  P   P3908     1.0  0.10319  0.58450  0.05313  1.0000
  P   P3909     1.0  0.09223  0.57070  0.05240  1.0000
  P   P3910     1.0  0.09502  0.58502  0.12354  1.0000
  P   P3911     1.0  0.04920  0.57097  0.12318  1.0000
  P   P3912     1.0  0.05212  0.58508  0.05306  1.0000
  P   P3913     1.0  0.04112  0.57126  0.05259  1.0000
  P   P3914     1.0  0.04397  0.58565  0.12341  1.0000
  P   P3915     1.0  0.99251  0.54312  0.12266  1.0000
  P   P3916     1.0  0.99549  0.55722  0.05248  1.0000
  P   P3917     1.0  0.98435  0.54336  0.05205  1.0000
  P   P3918     1.0  0.98733  0.55777  0.12287  1.0000
  P   P3919     1.0  0.94153  0.54373  0.12245  1.0000
  P   P3920     1.0  0.94470  0.55785  0.05168  1.0000
  P   P3921     1.0  0.93359  0.54401  0.05166  1.0000
  P   P3922     1.0  0.93612  0.55823  0.12208  1.0000
  P   P3923     1.0  0.89032  0.54419  0.12161  1.0000
  P   P3924     1.0  0.89338  0.55822  0.05070  1.0000
  P   P3925     1.0  0.88245  0.54443  0.05066  1.0000
  P   P3926     1.0  0.88433  0.55838  0.12113  1.0000
  P   P3927     1.0  0.83852  0.54435  0.12080  1.0000
  P   P3928     1.0  0.84112  0.55820  0.05020  1.0000
  P   P3929     1.0  0.83037  0.54448  0.04988  1.0000
  P   P3930     1.0  0.83182  0.55824  0.12066  1.0000
  P   P3931     1.0  0.78600  0.54421  0.12053  1.0000
  P   P3932     1.0  0.78816  0.55792  0.05021  1.0000
  P   P3933     1.0  0.77751  0.54423  0.04972  1.0000
  P   P3934     1.0  0.77872  0.55788  0.12070  1.0000
  P   P3935     1.0  0.73289  0.54386  0.12073  1.0000
  P   P3936     1.0  0.73475  0.55748  0.05060  1.0000
  P   P3937     1.0  0.72413  0.54380  0.05003  1.0000
  P   P3938     1.0  0.72522  0.55738  0.12110  1.0000
  P   P3939     1.0  0.67939  0.54337  0.12125  1.0000
  P   P3940     1.0  0.68110  0.55694  0.05121  1.0000
  P   P3941     1.0  0.67047  0.54326  0.05062  1.0000
  P   P3942     1.0  0.67150  0.55681  0.12171  1.0000
  P   P3943     1.0  0.62567  0.54282  0.12194  1.0000
  P   P3944     1.0  0.62732  0.55637  0.05194  1.0000
  P   P3945     1.0  0.61665  0.54268  0.05135  1.0000
  P   P3946     1.0  0.61767  0.55621  0.12242  1.0000
  P   P3947     1.0  0.57184  0.54224  0.12270  1.0000
  P   P3948     1.0  0.57349  0.55579  0.05270  1.0000
  P   P3949     1.0  0.56278  0.54208  0.05213  1.0000
  P   P3950     1.0  0.56382  0.55563  0.12316  1.0000
  P   P3951     1.0  0.51800  0.54167  0.12347  1.0000
  P   P3952     1.0  0.51968  0.55523  0.05342  1.0000
  P   P3953     1.0  0.50892  0.54152  0.05291  1.0000
  P   P3954     1.0  0.51003  0.55509  0.12385  1.0000
  P   P3955     1.0  0.46422  0.54116  0.12416  1.0000
  P   P3956     1.0  0.46597  0.55474  0.05403  1.0000
  P   P3957     1.0  0.45517  0.54101  0.05359  1.0000
  P   P3958     1.0  0.45639  0.55465  0.12441  1.0000
  P   P3959     1.0  0.41061  0.54076  0.12470  1.0000
  P   P3960     1.0  0.41244  0.55437  0.05444  1.0000
  P   P3961     1.0  0.40162  0.54063  0.05411  1.0000
  P   P3962     1.0  0.40302  0.55438  0.12475  1.0000
  P   P3963     1.0  0.35727  0.54052  0.12501  1.0000
  P   P3964     1.0  0.35920  0.55419  0.05461  1.0000
  P   P3965     1.0  0.34840  0.54045  0.05441  1.0000
  P   P3966     1.0  0.35001  0.55434  0.12484  1.0000
  P   P3967     1.0  0.30429  0.54051  0.12507  1.0000
  P   P3968     1.0  0.30637  0.55429  0.05459  1.0000
  P   P3969     1.0  0.29563  0.54056  0.05450  1.0000
  P   P3970     1.0  0.29738  0.55456  0.12471  1.0000
  P   P3971     1.0  0.25170  0.54076  0.12483  1.0000
  P   P3972     1.0  0.25402  0.55471  0.05437  1.0000
  P   P3973     1.0  0.24332  0.54099  0.05434  1.0000
  P   P3974     1.0  0.24506  0.55501  0.12436  1.0000
  P   P3975     1.0  0.19939  0.54119  0.12419  1.0000
  P   P3976     1.0  0.20196  0.55526  0.05370  1.0000
  P   P3977     1.0  0.19124  0.54154  0.05373  1.0000
  P   P3978     1.0  0.19300  0.55557  0.12363  1.0000
  P   P3979     1.0  0.14730  0.54171  0.12320  1.0000
  P   P3980     1.0  0.15004  0.55581  0.05278  1.0000
  P   P3981     1.0  0.13922  0.54206  0.05272  1.0000
  P   P3982     1.0  0.14115  0.55611  0.12282  1.0000
  P   P3983     1.0  0.09540  0.54218  0.12243  1.0000
  P   P3984     1.0  0.09821  0.55627  0.05230  1.0000
  P   P3985     1.0  0.08725  0.54247  0.05192  1.0000
  P   P3986     1.0  0.08956  0.55659  0.12260  1.0000
  P   P3987     1.0  0.04376  0.54260  0.12241  1.0000
  P   P3988     1.0  0.04663  0.55669  0.05252  1.0000
  P   P3989     1.0  0.03554  0.54284  0.05190  1.0000
  P   P3990     1.0  0.03833  0.55715  0.12292  1.0000
  P   P3991     1.0  0.98693  0.51479  0.12220  1.0000
  P   P3992     1.0  0.98993  0.52887  0.05200  1.0000
  P   P3993     1.0  0.97862  0.51496  0.05163  1.0000
  P   P3994     1.0  0.98148  0.52926  0.12240  1.0000
  P   P3995     1.0  0.93566  0.51528  0.12246  1.0000
  P   P3996     1.0  0.93872  0.52936  0.05209  1.0000
  P   P3997     1.0  0.92735  0.51543  0.05185  1.0000
  P   P3998     1.0  0.93052  0.52987  0.12251  1.0000
  P   P3999     1.0  0.88472  0.51589  0.12252  1.0000
  P   P4000     1.0  0.88791  0.52997  0.05159  1.0000
  P   P4001     1.0  0.87654  0.51605  0.05176  1.0000
  P   P4002     1.0  0.87939  0.53036  0.12202  1.0000
  P   P4003     1.0  0.83361  0.51639  0.12206  1.0000
  P   P4004     1.0  0.83674  0.53040  0.05085  1.0000
  P   P4005     1.0  0.82551  0.51652  0.05113  1.0000
  P   P4006     1.0  0.82769  0.53055  0.12129  1.0000
  P   P4007     1.0  0.78190  0.51660  0.12149  1.0000
  P   P4008     1.0  0.78467  0.53046  0.05049  1.0000
  P   P4009     1.0  0.77362  0.51665  0.05056  1.0000
  P   P4010     1.0  0.77525  0.53045  0.12093  1.0000
  P   P4011     1.0  0.72945  0.51651  0.12132  1.0000
  P   P4012     1.0  0.73183  0.53025  0.05059  1.0000
  P   P4013     1.0  0.72087  0.51646  0.05049  1.0000
  P   P4014     1.0  0.72216  0.53011  0.12104  1.0000
  P   P4015     1.0  0.67635  0.51619  0.12156  1.0000
  P   P4016     1.0  0.67848  0.52985  0.05103  1.0000
  P   P4017     1.0  0.66753  0.51607  0.05084  1.0000
  P   P4018     1.0  0.66863  0.52962  0.12148  1.0000
  P   P4019     1.0  0.62282  0.51571  0.12208  1.0000
  P   P4020     1.0  0.62483  0.52934  0.05168  1.0000
  P   P4021     1.0  0.61386  0.51556  0.05144  1.0000
  P   P4022     1.0  0.61486  0.52905  0.12211  1.0000
  P   P4023     1.0  0.56904  0.51516  0.12276  1.0000
  P   P4024     1.0  0.57103  0.52878  0.05243  1.0000
  P   P4025     1.0  0.56000  0.51499  0.05218  1.0000
  P   P4026     1.0  0.56096  0.52845  0.12284  1.0000
  P   P4027     1.0  0.51515  0.51458  0.12352  1.0000
  P   P4028     1.0  0.51717  0.52822  0.05321  1.0000
  P   P4029     1.0  0.50606  0.51441  0.05298  1.0000
  P   P4030     1.0  0.50704  0.52787  0.12360  1.0000
  P   P4031     1.0  0.46124  0.51402  0.12429  1.0000
  P   P4032     1.0  0.46334  0.52769  0.05395  1.0000
  P   P4033     1.0  0.45216  0.51386  0.05377  1.0000
  P   P4034     1.0  0.45320  0.52734  0.12432  1.0000
  P   P4035     1.0  0.40741  0.51352  0.12499  1.0000
  P   P4036     1.0  0.40962  0.52722  0.05458  1.0000
  P   P4037     1.0  0.39838  0.51338  0.05447  1.0000
  P   P4038     1.0  0.39954  0.52692  0.12491  1.0000
  P   P4039     1.0  0.35377  0.51313  0.12554  1.0000
  P   P4040     1.0  0.35611  0.52689  0.05502  1.0000
  P   P4041     1.0  0.34486  0.51303  0.05500  1.0000
  P   P4042     1.0  0.34620  0.52668  0.12530  1.0000
  P   P4043     1.0  0.30046  0.51292  0.12585  1.0000
  P   P4044     1.0  0.30294  0.52676  0.05522  1.0000
  P   P4045     1.0  0.29173  0.51291  0.05530  1.0000
  P   P4046     1.0  0.29328  0.52668  0.12543  1.0000
  P   P4047     1.0  0.24757  0.51294  0.12586  1.0000
  P   P4048     1.0  0.25020  0.52690  0.05519  1.0000
  P   P4049     1.0  0.23910  0.51308  0.05532  1.0000
  P   P4050     1.0  0.24074  0.52694  0.12528  1.0000
  P   P4051     1.0  0.19505  0.51320  0.12546  1.0000
  P   P4052     1.0  0.19788  0.52729  0.05479  1.0000
  P   P4053     1.0  0.18690  0.51350  0.05495  1.0000
  P   P4054     1.0  0.18847  0.52738  0.12476  1.0000
  P   P4055     1.0  0.14279  0.51361  0.12458  1.0000
  P   P4056     1.0  0.14576  0.52776  0.05385  1.0000
  P   P4057     1.0  0.13482  0.51398  0.05407  1.0000
  P   P4058     1.0  0.13638  0.52789  0.12373  1.0000
  P   P4059     1.0  0.09068  0.51406  0.12336  1.0000
  P   P4060     1.0  0.09368  0.52820  0.05264  1.0000
  P   P4061     1.0  0.08266  0.51439  0.05280  1.0000
  P   P4062     1.0  0.08443  0.52834  0.12265  1.0000
  P   P4063     1.0  0.03867  0.51444  0.12239  1.0000
  P   P4064     1.0  0.04165  0.52853  0.05194  1.0000
  P   P4065     1.0  0.03049  0.51467  0.05181  1.0000
  P   P4066     1.0  0.03273  0.52874  0.12221  1.0000
  P   P4067     1.0  0.98162  0.48670  0.12275  1.0000
  P   P4068     1.0  0.98490  0.50080  0.05178  1.0000
  P   P4069     1.0  0.97331  0.48683  0.05213  1.0000
  P   P4070     1.0  0.97561  0.50086  0.12203  1.0000
  P   P4071     1.0  0.92980  0.48699  0.12252  1.0000
  P   P4072     1.0  0.93302  0.50105  0.05180  1.0000
  P   P4073     1.0  0.92130  0.48704  0.05193  1.0000
  P   P4074     1.0  0.92434  0.50134  0.12223  1.0000
  P   P4075     1.0  0.87853  0.48745  0.12297  1.0000
  P   P4076     1.0  0.88175  0.50151  0.05214  1.0000
  P   P4077     1.0  0.86995  0.48748  0.05240  1.0000
  P   P4078     1.0  0.87343  0.50196  0.12261  1.0000
  P   P4079     1.0  0.82764  0.48808  0.12343  1.0000
  P   P4080     1.0  0.83089  0.50211  0.05203  1.0000
  P   P4081     1.0  0.81908  0.48808  0.05274  1.0000
  P   P4082     1.0  0.82235  0.50247  0.12250  1.0000
  P   P4083     1.0  0.77658  0.48862  0.12345  1.0000
  P   P4084     1.0  0.77985  0.50261  0.05160  1.0000
  P   P4085     1.0  0.76808  0.48859  0.05260  1.0000
  P   P4086     1.0  0.77068  0.50270  0.12204  1.0000
  P   P4087     1.0  0.72491  0.48888  0.12320  1.0000
  P   P4088     1.0  0.72798  0.50277  0.05137  1.0000
  P   P4089     1.0  0.71630  0.48879  0.05234  1.0000
  P   P4090     1.0  0.71824  0.50263  0.12178  1.0000
  P   P4091     1.0  0.67246  0.48883  0.12308  1.0000
  P   P4092     1.0  0.67526  0.50263  0.05148  1.0000
  P   P4093     1.0  0.66362  0.48867  0.05233  1.0000
  P   P4094     1.0  0.66513  0.50230  0.12186  1.0000
  P   P4095     1.0  0.61933  0.48853  0.12324  1.0000
  P   P4096     1.0  0.62195  0.50228  0.05187  1.0000
  P   P4097     1.0  0.61027  0.48831  0.05263  1.0000
  P   P4098     1.0  0.61154  0.50181  0.12223  1.0000
  P   P4099     1.0  0.56574  0.48806  0.12365  1.0000
  P   P4100     1.0  0.56830  0.50180  0.05246  1.0000
  P   P4101     1.0  0.55653  0.48782  0.05316  1.0000
  P   P4102     1.0  0.55768  0.50124  0.12280  1.0000
  P   P4103     1.0  0.51188  0.48751  0.12424  1.0000
  P   P4104     1.0  0.51446  0.50127  0.05317  1.0000
  P   P4105     1.0  0.50258  0.48726  0.05384  1.0000
  P   P4106     1.0  0.50369  0.50064  0.12348  1.0000
  P   P4107     1.0  0.45789  0.48693  0.12492  1.0000
  P   P4108     1.0  0.46055  0.50072  0.05391  1.0000
  P   P4109     1.0  0.44856  0.48668  0.05458  1.0000
  P   P4110     1.0  0.44968  0.50005  0.12419  1.0000
  P   P4111     1.0  0.40389  0.48636  0.12560  1.0000
  P   P4112     1.0  0.40666  0.50020  0.05462  1.0000
  P   P4113     1.0  0.39458  0.48614  0.05530  1.0000
  P   P4114     1.0  0.39576  0.49953  0.12487  1.0000
  P   P4115     1.0  0.34998  0.48586  0.12621  1.0000
  P   P4116     1.0  0.35291  0.49976  0.05521  1.0000
  P   P4117     1.0  0.34076  0.48568  0.05591  1.0000
  P   P4118     1.0  0.34208  0.49912  0.12543  1.0000
  P   P4119     1.0  0.29631  0.48548  0.12664  1.0000
  P   P4120     1.0  0.29942  0.49946  0.05560  1.0000
  P   P4121     1.0  0.28728  0.48537  0.05631  1.0000
  P   P4122     1.0  0.28878  0.49891  0.12580  1.0000
  P   P4123     1.0  0.24304  0.48528  0.12682  1.0000
  P   P4124     1.0  0.24633  0.49936  0.05573  1.0000
  P   P4125     1.0  0.23429  0.48530  0.05644  1.0000
  P   P4126     1.0  0.23597  0.49895  0.12589  1.0000
  P   P4127     1.0  0.19026  0.48533  0.12667  1.0000
  P   P4128     1.0  0.19372  0.49951  0.05556  1.0000
  P   P4129     1.0  0.18190  0.48551  0.05623  1.0000
  P   P4130     1.0  0.18360  0.49924  0.12563  1.0000
  P   P4131     1.0  0.13791  0.48559  0.12609  1.0000
  P   P4132     1.0  0.14149  0.49987  0.05495  1.0000
  P   P4133     1.0  0.12992  0.48593  0.05557  1.0000
  P   P4134     1.0  0.13148  0.49968  0.12490  1.0000
  P   P4135     1.0  0.08578  0.48599  0.12504  1.0000
  P   P4136     1.0  0.08936  0.50027  0.05381  1.0000
  P   P4137     1.0  0.07791  0.48636  0.05448  1.0000
  P   P4138     1.0  0.07943  0.50015  0.12367  1.0000
  P   P4139     1.0  0.03370  0.48640  0.12373  1.0000
  P   P4140     1.0  0.03714  0.50059  0.05253  1.0000
  P   P4141     1.0  0.02565  0.48666  0.05312  1.0000
  P   P4142     1.0  0.02739  0.50052  0.12252  1.0000
  P   P4143     1.0  0.97603  0.45866  0.12448  1.0000
  P   P4144     1.0  0.98016  0.47298  0.05277  1.0000
  P   P4145     1.0  0.96771  0.45881  0.05392  1.0000
  P   P4146     1.0  0.96974  0.47262  0.12277  1.0000
  P   P4147     1.0  0.92393  0.45890  0.12362  1.0000
  P   P4148     1.0  0.92775  0.47308  0.05211  1.0000
  P   P4149     1.0  0.91528  0.45888  0.05305  1.0000
  P   P4150     1.0  0.91791  0.47290  0.12235  1.0000
  P   P4151     1.0  0.87209  0.45914  0.12347  1.0000
  P   P4152     1.0  0.87573  0.47326  0.05223  1.0000
  P   P4153     1.0  0.86321  0.45904  0.05296  1.0000
  P   P4154     1.0  0.86669  0.47337  0.12273  1.0000
  P   P4155     1.0  0.82088  0.45961  0.12429  1.0000
  P   P4156     1.0  0.82441  0.47371  0.05298  1.0000
  P   P4157     1.0  0.81188  0.45948  0.05389  1.0000
  P   P4158     1.0  0.81585  0.47401  0.12355  1.0000
  P   P4159     1.0  0.77008  0.46028  0.12542  1.0000
  P   P4160     1.0  0.77354  0.47434  0.05342  1.0000
  P   P4161     1.0  0.76097  0.46011  0.05502  1.0000
  P   P4162     1.0  0.76477  0.47456  0.12395  1.0000
  P   P4163     1.0  0.71903  0.46087  0.12608  1.0000
  P   P4164     1.0  0.72255  0.47490  0.05341  1.0000
  P   P4165     1.0  0.70987  0.46066  0.05562  1.0000
  P   P4166     1.0  0.71303  0.47481  0.12384  1.0000
  P   P4167     1.0  0.66729  0.46117  0.12616  1.0000
  P   P4168     1.0  0.67079  0.47515  0.05331  1.0000
  P   P4169     1.0  0.65800  0.46089  0.05572  1.0000
  P   P4170     1.0  0.66050  0.47475  0.12363  1.0000
  P   P4171     1.0  0.61474  0.46114  0.12597  1.0000
  P   P4172     1.0  0.61812  0.47506  0.05333  1.0000
  P   P4173     1.0  0.60523  0.46079  0.05567  1.0000
  P   P4174     1.0  0.60726  0.47442  0.12356  1.0000
  P   P4175     1.0  0.56149  0.46083  0.12588  1.0000
  P   P4176     1.0  0.56479  0.47473  0.05357  1.0000
  P   P4177     1.0  0.55175  0.46043  0.05575  1.0000
  P   P4178     1.0  0.55354  0.47392  0.12375  1.0000
  P   P4179     1.0  0.50777  0.46035  0.12603  1.0000
  P   P4180     1.0  0.51107  0.47427  0.05402  1.0000
  P   P4181     1.0  0.49784  0.45992  0.05606  1.0000
  P   P4182     1.0  0.49955  0.47333  0.12416  1.0000
  P   P4183     1.0  0.45376  0.45978  0.12638  1.0000
  P   P4184     1.0  0.45713  0.47374  0.05459  1.0000
  P   P4185     1.0  0.44373  0.45935  0.05653  1.0000
  P   P4186     1.0  0.44542  0.47272  0.12470  1.0000
  P   P4187     1.0  0.39964  0.45919  0.12685  1.0000
  P   P4188     1.0  0.40312  0.47319  0.05521  1.0000
  P   P4189     1.0  0.38957  0.45876  0.05708  1.0000
  P   P4190     1.0  0.39130  0.47212  0.12528  1.0000
  P   P4191     1.0  0.34552  0.45861  0.12733  1.0000
  P   P4192     1.0  0.34915  0.47267  0.05578  1.0000
  P   P4193     1.0  0.33548  0.45822  0.05760  1.0000
  P   P4194     1.0  0.33731  0.47159  0.12583  1.0000
  P   P4195     1.0  0.29153  0.45809  0.12773  1.0000
  P   P4196     1.0  0.29535  0.47223  0.05620  1.0000
  P   P4197     1.0  0.28163  0.45776  0.05798  1.0000
  P   P4198     1.0  0.28360  0.47120  0.12624  1.0000
  P   P4199     1.0  0.23784  0.45770  0.12797  1.0000
  P   P4200     1.0  0.24188  0.47194  0.05639  1.0000
  P   P4201     1.0  0.22823  0.45748  0.05813  1.0000
  P   P4202     1.0  0.23038  0.47101  0.12645  1.0000
  P   P4203     1.0  0.18463  0.45752  0.12798  1.0000
  P   P4204     1.0  0.18891  0.47186  0.05631  1.0000
  P   P4205     1.0  0.17548  0.45745  0.05797  1.0000
  P   P4206     1.0  0.17776  0.47109  0.12639  1.0000
  P   P4207     1.0  0.13203  0.45759  0.12768  1.0000
  P   P4208     1.0  0.13652  0.47203  0.05592  1.0000
  P   P4209     1.0  0.12344  0.45771  0.05745  1.0000
  P   P4210     1.0  0.12564  0.47141  0.12596  1.0000
  P   P4211     1.0  0.07992  0.45788  0.12694  1.0000
  P   P4212     1.0  0.08453  0.47240  0.05513  1.0000
  P   P4213     1.0  0.07183  0.45817  0.05650  1.0000
  P   P4214     1.0  0.07374  0.47186  0.12506  1.0000
  P   P4215     1.0  0.02802  0.45829  0.12575  1.0000
  P   P4216     1.0  0.03250  0.47277  0.05393  1.0000
  P   P4217     1.0  0.02001  0.45859  0.05521  1.0000
  P   P4218     1.0  0.02179  0.47230  0.12379  1.0000
  P   P4219     1.0  0.96917  0.43041  0.12525  1.0000
  P   P4220     1.0  0.97463  0.44517  0.05431  1.0000
  P   P4221     1.0  0.96074  0.43064  0.05496  1.0000
  P   P4222     1.0  0.96316  0.44432  0.12416  1.0000
  P   P4223     1.0  0.91739  0.43076  0.12406  1.0000
  P   P4224     1.0  0.92224  0.44529  0.05327  1.0000
  P   P4225     1.0  0.90848  0.43079  0.05386  1.0000
  P   P4226     1.0  0.91120  0.44459  0.12330  1.0000
  P   P4227     1.0  0.86538  0.43095  0.12358  1.0000
  P   P4228     1.0  0.86975  0.44529  0.05279  1.0000
  P   P4229     1.0  0.85604  0.43079  0.05342  1.0000
  P   P4230     1.0  0.85939  0.44484  0.12306  1.0000
  P   P4231     1.0  0.81356  0.43117  0.12379  1.0000
  P   P4232     1.0  0.81768  0.44543  0.05317  1.0000
  P   P4233     1.0  0.80397  0.43091  0.05369  1.0000
  P   P4234     1.0  0.80823  0.44531  0.12375  1.0000
  P   P4235     1.0  0.76243  0.43167  0.12521  1.0000
  P   P4236     1.0  0.76642  0.44593  0.05457  1.0000
  P   P4237     1.0  0.75276  0.43142  0.05525  1.0000
  P   P4238     1.0  0.75748  0.44599  0.12527  1.0000
  P   P4239     1.0  0.71175  0.43243  0.12740  1.0000
  P   P4240     1.0  0.71559  0.44663  0.05584  1.0000
  P   P4241     1.0  0.70198  0.43216  0.05754  1.0000
  P   P4242     1.0  0.70632  0.44657  0.12639  1.0000
  P   P4243     1.0  0.66063  0.43307  0.12879  1.0000
  P   P4244     1.0  0.66451  0.44723  0.05642  1.0000
  P   P4245     1.0  0.65077  0.43275  0.05893  1.0000
  P   P4246     1.0  0.65436  0.44682  0.12673  1.0000
  P   P4247     1.0  0.60867  0.43336  0.12896  1.0000
  P   P4248     1.0  0.61264  0.44748  0.05643  1.0000
  P   P4249     1.0  0.59862  0.43294  0.05915  1.0000
  P   P4250     1.0  0.60158  0.44673  0.12651  1.0000
  P   P4251     1.0  0.55586  0.43329  0.12850  1.0000
  P   P4252     1.0  0.55985  0.44739  0.05626  1.0000
  P   P4253     1.0  0.54552  0.43277  0.05883  1.0000
  P   P4254     1.0  0.54811  0.44637  0.12619  1.0000
  P   P4255     1.0  0.50236  0.43294  0.12801  1.0000
  P   P4256     1.0  0.50636  0.44704  0.05625  1.0000
  P   P4257     1.0  0.49175  0.43236  0.05852  1.0000
  P   P4258     1.0  0.49418  0.44584  0.12609  1.0000
  P   P4259     1.0  0.44841  0.43242  0.12775  1.0000
  P   P4260     1.0  0.45246  0.44655  0.05645  1.0000
  P   P4261     1.0  0.43762  0.43181  0.05840  1.0000
  P   P4262     1.0  0.43999  0.44523  0.12623  1.0000
  P   P4263     1.0  0.39422  0.43182  0.12771  1.0000
  P   P4264     1.0  0.39835  0.44599  0.05680  1.0000
  P   P4265     1.0  0.38336  0.43122  0.05844  1.0000
  P   P4266     1.0  0.38572  0.44459  0.12654  1.0000
  P   P4267     1.0  0.33994  0.43119  0.12780  1.0000
  P   P4268     1.0  0.34419  0.44542  0.05719  1.0000
  P   P4269     1.0  0.32911  0.43062  0.05857  1.0000
  P   P4270     1.0  0.33149  0.44398  0.12692  1.0000
  P   P4271     1.0  0.28571  0.43059  0.12797  1.0000
  P   P4272     1.0  0.29010  0.44487  0.05754  1.0000
  P   P4273     1.0  0.27499  0.43007  0.05872  1.0000
  P   P4274     1.0  0.27745  0.44345  0.12727  1.0000
  P   P4275     1.0  0.23167  0.43005  0.12813  1.0000
  P   P4276     1.0  0.23625  0.44442  0.05774  1.0000
  P   P4277     1.0  0.22118  0.42962  0.05881  1.0000
  P   P4278     1.0  0.22378  0.44307  0.12750  1.0000
  P   P4279     1.0  0.17801  0.42966  0.12824  1.0000
  P   P4280     1.0  0.18284  0.44413  0.05771  1.0000
  P   P4281     1.0  0.16788  0.42935  0.05877  1.0000
  P   P4282     1.0  0.17070  0.44291  0.12756  1.0000
  P   P4283     1.0  0.12494  0.42949  0.12820  1.0000
  P   P4284     1.0  0.13009  0.44408  0.05742  1.0000
  P   P4285     1.0  0.11533  0.42934  0.05851  1.0000
  P   P4286     1.0  0.11831  0.44302  0.12733  1.0000
  P   P4287     1.0  0.07258  0.42960  0.12783  1.0000
  P   P4288     1.0  0.07807  0.44431  0.05680  1.0000
  P   P4289     1.0  0.06359  0.42965  0.05784  1.0000
  P   P4290     1.0  0.06647  0.44338  0.12669  1.0000
  P   P4291     1.0  0.02077  0.42996  0.12678  1.0000
  P   P4292     1.0  0.02647  0.44477  0.05573  1.0000
  P   P4293     1.0  0.01232  0.43018  0.05654  1.0000
  P   P4294     1.0  0.01487  0.44387  0.12553  1.0000
  P   P4295     1.0  0.96085  0.40183  0.12367  1.0000
  P   P4296     1.0  0.96695  0.41686  0.05496  1.0000
  P   P4297     1.0  0.95222  0.40211  0.05361  1.0000
  P   P4298     1.0  0.95528  0.41581  0.12483  1.0000
  P   P4299     1.0  0.90969  0.40236  0.12209  1.0000
  P   P4300     1.0  0.91533  0.41728  0.05291  1.0000
  P   P4301     1.0  0.90088  0.40260  0.05210  1.0000
  P   P4302     1.0  0.90394  0.41627  0.12308  1.0000
  P   P4303     1.0  0.85825  0.40272  0.12137  1.0000
  P   P4304     1.0  0.86297  0.41732  0.05216  1.0000
  P   P4305     1.0  0.84873  0.40269  0.05163  1.0000
  P   P4306     1.0  0.85212  0.41651  0.12254  1.0000
  P   P4307     1.0  0.80637  0.40290  0.12155  1.0000
  P   P4308     1.0  0.81050  0.41727  0.05223  1.0000
  P   P4309     1.0  0.79629  0.40264  0.05194  1.0000
  P   P4310     1.0  0.80031  0.41673  0.12275  1.0000
  P   P4311     1.0  0.75456  0.40314  0.12235  1.0000
  P   P4312     1.0  0.75847  0.41742  0.05321  1.0000
  P   P4313     1.0  0.74417  0.40276  0.05283  1.0000
  P   P4314     1.0  0.74907  0.41719  0.12397  1.0000
  P   P4315     1.0  0.70337  0.40367  0.12433  1.0000
  P   P4316     1.0  0.70737  0.41804  0.05585  1.0000
  P   P4317     1.0  0.69299  0.40335  0.05494  1.0000
  P   P4318     1.0  0.69824  0.41791  0.12666  1.0000
  P   P4319     1.0  0.65261  0.40449  0.12746  1.0000
  P   P4320     1.0  0.65670  0.41887  0.05833  1.0000
  P   P4321     1.0  0.64243  0.40424  0.05807  1.0000
  P   P4322     1.0  0.64687  0.41849  0.12880  1.0000
  P   P4323     1.0  0.60127  0.40513  0.12935  1.0000
  P   P4324     1.0  0.60550  0.41947  0.05930  1.0000
  P   P4325     1.0  0.59117  0.40485  0.05977  1.0000
  P   P4326     1.0  0.59459  0.41871  0.12932  1.0000
  P   P4327     1.0  0.54895  0.40536  0.12933  1.0000
  P   P4328     1.0  0.55332  0.41966  0.05917  1.0000
  P   P4329     1.0  0.53868  0.40497  0.05970  1.0000
  P   P4330     1.0  0.54147  0.41856  0.12886  1.0000
  P   P4331     1.0  0.49578  0.40522  0.12845  1.0000
  P   P4332     1.0  0.50019  0.41948  0.05874  1.0000
  P   P4333     1.0  0.48521  0.40472  0.05893  1.0000
  P   P4334     1.0  0.48770  0.41815  0.12824  1.0000
  P   P4335     1.0  0.44199  0.40480  0.12754  1.0000
  P   P4336     1.0  0.44640  0.41907  0.05840  1.0000
  P   P4337     1.0  0.43118  0.40425  0.05816  1.0000
  P   P4338     1.0  0.43355  0.41758  0.12782  1.0000
  P   P4339     1.0  0.38782  0.40423  0.12683  1.0000
  P   P4340     1.0  0.39226  0.41853  0.05824  1.0000
  P   P4341     1.0  0.37689  0.40367  0.05757  1.0000
  P   P4342     1.0  0.37922  0.41695  0.12763  1.0000
  P   P4343     1.0  0.33348  0.40359  0.12635  1.0000
  P   P4344     1.0  0.33798  0.41793  0.05821  1.0000
  P   P4345     1.0  0.32255  0.40305  0.05713  1.0000
  P   P4346     1.0  0.32486  0.41630  0.12760  1.0000
  P   P4347     1.0  0.27913  0.40294  0.12603  1.0000
  P   P4348     1.0  0.28372  0.41733  0.05825  1.0000
  P   P4349     1.0  0.26828  0.40245  0.05682  1.0000
  P   P4350     1.0  0.27062  0.41569  0.12766  1.0000
  P   P4351     1.0  0.22488  0.40231  0.12583  1.0000
  P   P4352     1.0  0.22959  0.41676  0.05827  1.0000
  P   P4353     1.0  0.21419  0.40189  0.05660  1.0000
  P   P4354     1.0  0.21661  0.41516  0.12774  1.0000
  P   P4355     1.0  0.17088  0.40176  0.12572  1.0000
  P   P4356     1.0  0.17576  0.41630  0.05824  1.0000
  P   P4357     1.0  0.16044  0.40144  0.05641  1.0000
  P   P4358     1.0  0.16303  0.41478  0.12781  1.0000
  P   P4359     1.0  0.11730  0.40136  0.12567  1.0000
  P   P4360     1.0  0.12246  0.41601  0.05808  1.0000
  P   P4361     1.0  0.10725  0.40117  0.05622  1.0000
  P   P4362     1.0  0.11010  0.41464  0.12778  1.0000
  P   P4363     1.0  0.06438  0.40121  0.12558  1.0000
  P   P4364     1.0  0.06992  0.41599  0.05769  1.0000
  P   P4365     1.0  0.05484  0.40118  0.05591  1.0000
  P   P4366     1.0  0.05795  0.41480  0.12748  1.0000
  P   P4367     1.0  0.01228  0.40137  0.12508  1.0000
  P   P4368     1.0  0.01820  0.41630  0.05678  1.0000
  P   P4369     1.0  0.00328  0.40152  0.05517  1.0000
  P   P4370     1.0  0.00645  0.41524  0.12654  1.0000
  P   P4371     1.0  0.95236  0.37314  0.12016  1.0000
  P   P4372     1.0  0.95777  0.38809  0.05277  1.0000
  P   P4373     1.0  0.94353  0.37344  0.05030  1.0000
  P   P4374     1.0  0.94692  0.38722  0.12309  1.0000
  P   P4375     1.0  0.90131  0.37367  0.11939  1.0000
  P   P4376     1.0  0.90666  0.38866  0.05118  1.0000
  P   P4377     1.0  0.89286  0.37411  0.04942  1.0000
  P   P4378     1.0  0.89620  0.38787  0.12176  1.0000
  P   P4379     1.0  0.85059  0.37427  0.11886  1.0000
  P   P4380     1.0  0.85525  0.38906  0.04989  1.0000
  P   P4381     1.0  0.84183  0.37460  0.04903  1.0000
  P   P4382     1.0  0.84513  0.38833  0.12075  1.0000
  P   P4383     1.0  0.79947  0.37468  0.11906  1.0000
  P   P4384     1.0  0.80310  0.38911  0.04990  1.0000
  P   P4385     1.0  0.78992  0.37472  0.04951  1.0000
  P   P4386     1.0  0.79343  0.38856  0.12087  1.0000
  P   P4387     1.0  0.74775  0.37491  0.11993  1.0000
  P   P4388     1.0  0.75070  0.38909  0.05068  1.0000
  P   P4389     1.0  0.73754  0.37471  0.05058  1.0000
  P   P4390     1.0  0.74159  0.38878  0.12169  1.0000
  P   P4391     1.0  0.69595  0.37520  0.12125  1.0000
  P   P4392     1.0  0.69867  0.38931  0.05225  1.0000
  P   P4393     1.0  0.68540  0.37489  0.05202  1.0000
  P   P4394     1.0  0.69011  0.38923  0.12336  1.0000
  P   P4395     1.0  0.64457  0.37579  0.12327  1.0000
  P   P4396     1.0  0.64762  0.39003  0.05538  1.0000
  P   P4397     1.0  0.63410  0.37556  0.05411  1.0000
  P   P4398     1.0  0.63891  0.38992  0.12643  1.0000
  P   P4399     1.0  0.59343  0.37658  0.12599  1.0000
  P   P4400     1.0  0.59713  0.39099  0.05847  1.0000
  P   P4401     1.0  0.58328  0.37646  0.05668  1.0000
  P   P4402     1.0  0.58714  0.39046  0.12897  1.0000
  P   P4403     1.0  0.54163  0.37715  0.12753  1.0000
  P   P4404     1.0  0.54588  0.39160  0.05954  1.0000
  P   P4405     1.0  0.53160  0.37699  0.05799  1.0000
  P   P4406     1.0  0.53445  0.39061  0.12942  1.0000
  P   P4407     1.0  0.48887  0.37727  0.12714  1.0000
  P   P4408     1.0  0.49334  0.39170  0.05912  1.0000
  P   P4409     1.0  0.47865  0.37700  0.05756  1.0000
  P   P4410     1.0  0.48102  0.39040  0.12865  1.0000
  P   P4411     1.0  0.43538  0.37703  0.12591  1.0000
  P   P4412     1.0  0.43982  0.39143  0.05823  1.0000
  P   P4413     1.0  0.42488  0.37666  0.05645  1.0000
  P   P4414     1.0  0.42707  0.38995  0.12766  1.0000
  P   P4415     1.0  0.38140  0.37656  0.12466  1.0000
  P   P4416     1.0  0.38574  0.39093  0.05733  1.0000
  P   P4417     1.0  0.37074  0.37615  0.05533  1.0000
  P   P4418     1.0  0.37285  0.38937  0.12679  1.0000
  P   P4419     1.0  0.32718  0.37596  0.12364  1.0000
  P   P4420     1.0  0.33142  0.39033  0.05653  1.0000
  P   P4421     1.0  0.31647  0.37556  0.05437  1.0000
  P   P4422     1.0  0.31856  0.38874  0.12607  1.0000
  P   P4423     1.0  0.27288  0.37531  0.12284  1.0000
  P   P4424     1.0  0.27706  0.38969  0.05585  1.0000
  P   P4425     1.0  0.26219  0.37494  0.05360  1.0000
  P   P4426     1.0  0.26429  0.38811  0.12551  1.0000
  P   P4427     1.0  0.21861  0.37466  0.12221  1.0000
  P   P4428     1.0  0.22277  0.38906  0.05530  1.0000
  P   P4429     1.0  0.20801  0.37433  0.05297  1.0000
  P   P4430     1.0  0.21015  0.38750  0.12506  1.0000
  P   P4431     1.0  0.16447  0.37404  0.12171  1.0000
  P   P4432     1.0  0.16866  0.38848  0.05483  1.0000
  P   P4433     1.0  0.15400  0.37377  0.05243  1.0000
  P   P4434     1.0  0.15623  0.38698  0.12470  1.0000
  P   P4435     1.0  0.11055  0.37350  0.12128  1.0000
  P   P4436     1.0  0.11490  0.38801  0.05446  1.0000
  P   P4437     1.0  0.10030  0.37330  0.05195  1.0000
  P   P4438     1.0  0.10274  0.38659  0.12444  1.0000
  P   P4439     1.0  0.05706  0.37309  0.12093  1.0000
  P   P4440     1.0  0.06171  0.38772  0.05412  1.0000
  P   P4441     1.0  0.04714  0.37302  0.05148  1.0000
  P   P4442     1.0  0.04993  0.38645  0.12424  1.0000
  P   P4443     1.0  0.00425  0.37294  0.12061  1.0000
  P   P4444     1.0  0.00932  0.38773  0.05369  1.0000
  P   P4445     1.0  0.99483  0.37303  0.05098  1.0000
  P   P4446     1.0  0.99801  0.38667  0.12392  1.0000
  P   P4447     1.0  0.98801  0.34489  0.04758  1.0000
  P   P4448     1.0  0.94518  0.34483  0.11665  1.0000
  P   P4449     1.0  0.94911  0.35933  0.04790  1.0000
  P   P4450     1.0  0.93556  0.34483  0.04702  1.0000
  P   P4451     1.0  0.93910  0.35869  0.11865  1.0000
  P   P4452     1.0  0.89334  0.34498  0.11647  1.0000
  P   P4453     1.0  0.89776  0.35968  0.04760  1.0000
  P   P4454     1.0  0.88424  0.34517  0.04668  1.0000
  P   P4455     1.0  0.88827  0.35927  0.11851  1.0000
  P   P4456     1.0  0.84250  0.34550  0.11658  1.0000
  P   P4457     1.0  0.84701  0.36028  0.04747  1.0000
  P   P4458     1.0  0.83383  0.34585  0.04667  1.0000
  P   P4459     1.0  0.83784  0.35995  0.11858  1.0000
  P   P4460     1.0  0.79208  0.34614  0.11713  1.0000
  P   P4461     1.0  0.79597  0.36076  0.04776  1.0000
  P   P4462     1.0  0.78327  0.34646  0.04730  1.0000
  P   P4463     1.0  0.78698  0.36045  0.11901  1.0000
  P   P4464     1.0  0.74125  0.34665  0.11821  1.0000
  P   P4465     1.0  0.74414  0.36093  0.04869  1.0000
  P   P4466     1.0  0.73181  0.34674  0.04861  1.0000
  P   P4467     1.0  0.73545  0.36073  0.11994  1.0000
  P   P4468     1.0  0.68977  0.34700  0.11971  1.0000
  P   P4469     1.0  0.69189  0.36102  0.05013  1.0000
  P   P4470     1.0  0.67971  0.34688  0.05034  1.0000
  P   P4471     1.0  0.68365  0.36103  0.12136  1.0000
  P   P4472     1.0  0.63806  0.34741  0.12152  1.0000
  P   P4473     1.0  0.63989  0.36136  0.05209  1.0000
  P   P4474     1.0  0.62776  0.34723  0.05226  1.0000
  P   P4475     1.0  0.63198  0.36153  0.12330  1.0000
  P   P4476     1.0  0.58652  0.34807  0.12349  1.0000
  P   P4477     1.0  0.58874  0.36219  0.05461  1.0000
  P   P4478     1.0  0.57649  0.34804  0.05424  1.0000
  P   P4479     1.0  0.58037  0.36220  0.12570  1.0000
  P   P4480     1.0  0.53496  0.34884  0.12524  1.0000
  P   P4481     1.0  0.53795  0.36316  0.05657  1.0000
  P   P4482     1.0  0.52524  0.34892  0.05588  1.0000
  P   P4483     1.0  0.52816  0.36266  0.12723  1.0000
  P   P4484     1.0  0.48268  0.34930  0.12562  1.0000
  P   P4485     1.0  0.48624  0.36368  0.05668  1.0000
  P   P4486     1.0  0.47292  0.34930  0.05611  1.0000
  P   P4487     1.0  0.47512  0.36272  0.12687  1.0000
  P   P4488     1.0  0.42955  0.34930  0.12442  1.0000
  P   P4489     1.0  0.43323  0.36365  0.05545  1.0000
  P   P4490     1.0  0.41953  0.34917  0.05490  1.0000
  P   P4491     1.0  0.42150  0.36245  0.12545  1.0000
  P   P4492     1.0  0.37587  0.34898  0.12275  1.0000
  P   P4493     1.0  0.37940  0.36326  0.05395  1.0000
  P   P4494     1.0  0.36559  0.34875  0.05330  1.0000
  P   P4495     1.0  0.36754  0.36198  0.12397  1.0000
  P   P4496     1.0  0.32187  0.34848  0.12131  1.0000
  P   P4497     1.0  0.32521  0.36270  0.05264  1.0000
  P   P4498     1.0  0.31144  0.34819  0.05193  1.0000
  P   P4499     1.0  0.31341  0.36140  0.12275  1.0000
  P   P4500     1.0  0.26773  0.34788  0.12024  1.0000
  P   P4501     1.0  0.27091  0.36206  0.05160  1.0000
  P   P4502     1.0  0.25723  0.34757  0.05089  1.0000
  P   P4503     1.0  0.25925  0.36079  0.12179  1.0000
  P   P4504     1.0  0.21355  0.34724  0.11943  1.0000
  P   P4505     1.0  0.21661  0.36140  0.05077  1.0000
  P   P4506     1.0  0.20305  0.34694  0.05010  1.0000
  P   P4507     1.0  0.20511  0.36017  0.12105  1.0000
  P   P4508     1.0  0.15940  0.34661  0.11880  1.0000
  P   P4509     1.0  0.16240  0.36075  0.05008  1.0000
  P   P4510     1.0  0.14894  0.34632  0.04946  1.0000
  P   P4511     1.0  0.15106  0.35958  0.12043  1.0000
  P   P4512     1.0  0.10535  0.34600  0.11824  1.0000
  P   P4513     1.0  0.10837  0.36016  0.04946  1.0000
  P   P4514     1.0  0.09497  0.34573  0.04886  1.0000
  P   P4515     1.0  0.09722  0.35905  0.11987  1.0000
  P   P4516     1.0  0.05150  0.34545  0.11768  1.0000
  P   P4517     1.0  0.05465  0.35966  0.04887  1.0000
  P   P4518     1.0  0.04126  0.34523  0.04823  1.0000
  P   P4519     1.0  0.04374  0.35864  0.11936  1.0000
  P   P4520     1.0  0.99801  0.34502  0.11710  1.0000
  P   P4521     1.0  0.00146  0.35934  0.04832  1.0000
  P   P4522     1.0  0.99092  0.35848  0.11893  1.0000
  P   P4523     1.0  0.98311  0.31721  0.04710  1.0000
  P   P4524     1.0  0.98561  0.33081  0.11690  1.0000
  P   P4525     1.0  0.93985  0.31708  0.11606  1.0000
  P   P4526     1.0  0.94227  0.33102  0.04549  1.0000
  P   P4527     1.0  0.92974  0.31680  0.04635  1.0000
  P   P4528     1.0  0.93271  0.33058  0.11620  1.0000
  P   P4529     1.0  0.88692  0.31681  0.11537  1.0000
  P   P4530     1.0  0.88976  0.33091  0.04482  1.0000
  P   P4531     1.0  0.87702  0.31661  0.04560  1.0000
  P   P4532     1.0  0.88077  0.33070  0.11572  1.0000
  P   P4533     1.0  0.83493  0.31686  0.11510  1.0000
  P   P4534     1.0  0.83835  0.33117  0.04473  1.0000
  P   P4535     1.0  0.82534  0.31679  0.04529  1.0000
  P   P4536     1.0  0.82992  0.33120  0.11586  1.0000
  P   P4537     1.0  0.78403  0.31729  0.11555  1.0000
  P   P4538     1.0  0.78786  0.33178  0.04546  1.0000
  P   P4539     1.0  0.77481  0.31738  0.04567  1.0000
  P   P4540     1.0  0.77965  0.33189  0.11678  1.0000
  P   P4541     1.0  0.73377  0.31796  0.11673  1.0000
  P   P4542     1.0  0.73732  0.33242  0.04688  1.0000
  P   P4543     1.0  0.72467  0.31813  0.04689  1.0000
  P   P4544     1.0  0.72908  0.33249  0.11827  1.0000
  P   P4545     1.0  0.68327  0.31861  0.11842  1.0000
  P   P4546     1.0  0.68596  0.33281  0.04859  1.0000
  P   P4547     1.0  0.67378  0.31865  0.04875  1.0000
  P   P4548     1.0  0.67782  0.33291  0.11992  1.0000
  P   P4549     1.0  0.63212  0.31914  0.12038  1.0000
  P   P4550     1.0  0.63404  0.33310  0.05056  1.0000
  P   P4551     1.0  0.62215  0.31902  0.05091  1.0000
  P   P4552     1.0  0.62617  0.33334  0.12179  1.0000
  P   P4553     1.0  0.58059  0.31971  0.12243  1.0000
  P   P4554     1.0  0.58230  0.33364  0.05267  1.0000
  P   P4555     1.0  0.57057  0.31961  0.05305  1.0000
  P   P4556     1.0  0.57443  0.33395  0.12372  1.0000
  P   P4557     1.0  0.52899  0.32048  0.12403  1.0000
  P   P4558     1.0  0.53118  0.33461  0.05424  1.0000
  P   P4559     1.0  0.51943  0.32061  0.05463  1.0000
  P   P4560     1.0  0.52255  0.33463  0.12508  1.0000
  P   P4561     1.0  0.47712  0.32122  0.12463  1.0000
  P   P4562     1.0  0.47991  0.33553  0.05473  1.0000
  P   P4563     1.0  0.46780  0.32146  0.05520  1.0000
  P   P4564     1.0  0.47002  0.33502  0.12525  1.0000
  P   P4565     1.0  0.42450  0.32156  0.12386  1.0000
  P   P4566     1.0  0.42751  0.33584  0.05389  1.0000
  P   P4567     1.0  0.41501  0.32167  0.05434  1.0000
  P   P4568     1.0  0.41675  0.33499  0.12413  1.0000
  P   P4569     1.0  0.37114  0.32146  0.12224  1.0000
  P   P4570     1.0  0.37404  0.33563  0.05230  1.0000
  P   P4571     1.0  0.36137  0.32141  0.05268  1.0000
  P   P4572     1.0  0.36304  0.33467  0.12251  1.0000
  P   P4573     1.0  0.31737  0.32108  0.12070  1.0000
  P   P4574     1.0  0.32003  0.33514  0.05079  1.0000
  P   P4575     1.0  0.30733  0.32090  0.05116  1.0000
  P   P4576     1.0  0.30910  0.33417  0.12108  1.0000
  P   P4577     1.0  0.26339  0.32056  0.11955  1.0000
  P   P4578     1.0  0.26583  0.33452  0.04963  1.0000
  P   P4579     1.0  0.25317  0.32030  0.05003  1.0000
  P   P4580     1.0  0.25505  0.33360  0.12001  1.0000
  P   P4581     1.0  0.20933  0.31996  0.11874  1.0000
  P   P4582     1.0  0.21160  0.33386  0.04879  1.0000
  P   P4583     1.0  0.19900  0.31965  0.04923  1.0000
  P   P4584     1.0  0.20096  0.33299  0.11923  1.0000
  P   P4585     1.0  0.15523  0.31933  0.11817  1.0000
  P   P4586     1.0  0.15739  0.33320  0.04814  1.0000
  P   P4587     1.0  0.14486  0.31900  0.04865  1.0000
  P   P4588     1.0  0.14690  0.33237  0.11863  1.0000
  P   P4589     1.0  0.10116  0.31870  0.11772  1.0000
  P   P4590     1.0  0.10327  0.33255  0.04758  1.0000
  P   P4591     1.0  0.09079  0.31836  0.04817  1.0000
  P   P4592     1.0  0.09292  0.33178  0.11811  1.0000
  P   P4593     1.0  0.04718  0.31810  0.11727  1.0000
  P   P4594     1.0  0.04929  0.33193  0.04700  1.0000
  P   P4595     1.0  0.03685  0.31775  0.04769  1.0000
  P   P4596     1.0  0.03911  0.33124  0.11756  1.0000
  P   P4597     1.0  0.99336  0.31754  0.11674  1.0000
  P   P4598     1.0  0.99556  0.33140  0.04630  1.0000
  P   P4599     1.0  0.98935  0.29025  0.11743  1.0000
  P   P4600     1.0  0.97901  0.28980  0.04758  1.0000
  P   P4601     1.0  0.98134  0.30343  0.11734  1.0000
  P   P4602     1.0  0.93556  0.28968  0.11709  1.0000
  P   P4603     1.0  0.93738  0.30333  0.04614  1.0000
  P   P4604     1.0  0.92528  0.28924  0.04719  1.0000
  P   P4605     1.0  0.92784  0.30297  0.11676  1.0000
  P   P4606     1.0  0.88205  0.28920  0.11655  1.0000
  P   P4607     1.0  0.88400  0.30288  0.04531  1.0000
  P   P4608     1.0  0.87186  0.28877  0.04659  1.0000
  P   P4609     1.0  0.87484  0.30268  0.11599  1.0000
  P   P4610     1.0  0.82903  0.28887  0.11583  1.0000
  P   P4611     1.0  0.83125  0.30264  0.04443  1.0000
  P   P4612     1.0  0.81895  0.28847  0.04583  1.0000
  P   P4613     1.0  0.82270  0.30266  0.11528  1.0000
  P   P4614     1.0  0.77684  0.28879  0.11534  1.0000
  P   P4615     1.0  0.77949  0.30274  0.04413  1.0000
  P   P4616     1.0  0.76687  0.28847  0.04537  1.0000
  P   P4617     1.0  0.77162  0.30303  0.11524  1.0000
  P   P4618     1.0  0.72571  0.28909  0.11573  1.0000
  P   P4619     1.0  0.72886  0.30327  0.04507  1.0000
  P   P4620     1.0  0.71593  0.28889  0.04582  1.0000
  P   P4621     1.0  0.72131  0.30368  0.11640  1.0000
  P   P4622     1.0  0.67540  0.28975  0.11721  1.0000
  P   P4623     1.0  0.67872  0.30405  0.04705  1.0000
  P   P4624     1.0  0.66587  0.28970  0.04736  1.0000
  P   P4625     1.0  0.67100  0.30441  0.11843  1.0000
  P   P4626     1.0  0.62517  0.29055  0.11934  1.0000
  P   P4627     1.0  0.62796  0.30472  0.04923  1.0000
  P   P4628     1.0  0.61552  0.29049  0.04961  1.0000
  P   P4629     1.0  0.62008  0.30501  0.12052  1.0000
  P   P4630     1.0  0.57438  0.29129  0.12153  1.0000
  P   P4631     1.0  0.57653  0.30527  0.05140  1.0000
  P   P4632     1.0  0.56443  0.29114  0.05194  1.0000
  P   P4633     1.0  0.56865  0.30561  0.12250  1.0000
  P   P4634     1.0  0.52309  0.29206  0.12336  1.0000
  P   P4635     1.0  0.52517  0.30605  0.05323  1.0000
  P   P4636     1.0  0.51330  0.29201  0.05382  1.0000
  P   P4637     1.0  0.51695  0.30635  0.12400  1.0000
  P   P4638     1.0  0.47154  0.29294  0.12407  1.0000
  P   P4639     1.0  0.47414  0.30717  0.05372  1.0000
  P   P4640     1.0  0.46238  0.29319  0.05448  1.0000
  P   P4641     1.0  0.46498  0.30707  0.12428  1.0000
  P   P4642     1.0  0.41953  0.29365  0.12351  1.0000
  P   P4643     1.0  0.42242  0.30795  0.05319  1.0000
  P   P4644     1.0  0.41050  0.29393  0.05388  1.0000
  P   P4645     1.0  0.41228  0.30739  0.12355  1.0000
  P   P4646     1.0  0.36673  0.29388  0.12209  1.0000
  P   P4647     1.0  0.36951  0.30805  0.05193  1.0000
  P   P4648     1.0  0.35739  0.29398  0.05239  1.0000
  P   P4649     1.0  0.35889  0.30729  0.12217  1.0000
  P   P4650     1.0  0.31324  0.29370  0.12061  1.0000
  P   P4651     1.0  0.31577  0.30771  0.05048  1.0000
  P   P4652     1.0  0.30353  0.29360  0.05086  1.0000
  P   P4653     1.0  0.30511  0.30691  0.12076  1.0000
  P   P4654     1.0  0.25941  0.29327  0.11947  1.0000
  P   P4655     1.0  0.26168  0.30715  0.04931  1.0000
  P   P4656     1.0  0.24940  0.29302  0.04972  1.0000
  P   P4657     1.0  0.25115  0.30639  0.11969  1.0000
  P   P4658     1.0  0.20542  0.29272  0.11872  1.0000
  P   P4659     1.0  0.20749  0.30651  0.04850  1.0000
  P   P4660     1.0  0.19522  0.29238  0.04896  1.0000
  P   P4661     1.0  0.19711  0.30580  0.11896  1.0000
  P   P4662     1.0  0.15137  0.29212  0.11823  1.0000
  P   P4663     1.0  0.15330  0.30585  0.04795  1.0000
  P   P4664     1.0  0.14107  0.29173  0.04846  1.0000
  P   P4665     1.0  0.14306  0.30518  0.11846  1.0000
  P   P4666     1.0  0.09731  0.29149  0.11792  1.0000
  P   P4667     1.0  0.09915  0.30518  0.04754  1.0000
  P   P4668     1.0  0.08696  0.29107  0.04813  1.0000
  P   P4669     1.0  0.08904  0.30457  0.11809  1.0000
  P   P4670     1.0  0.04328  0.29086  0.11768  1.0000
  P   P4671     1.0  0.04507  0.30452  0.04717  1.0000
  P   P4672     1.0  0.03292  0.29042  0.04786  1.0000
  P   P4673     1.0  0.03511  0.30397  0.11775  1.0000
  P   P4674     1.0  0.99112  0.30390  0.04674  1.0000
  P   P4675     1.0  0.98538  0.26303  0.11777  1.0000
  P   P4676     1.0  0.98712  0.27660  0.04747  1.0000
  P   P4677     1.0  0.97500  0.26249  0.04770  1.0000
  P   P4678     1.0  0.97725  0.27613  0.11811  1.0000
  P   P4679     1.0  0.93147  0.26240  0.11773  1.0000
  P   P4680     1.0  0.93321  0.27597  0.04725  1.0000
  P   P4681     1.0  0.92111  0.26187  0.04763  1.0000
  P   P4682     1.0  0.92350  0.27557  0.11791  1.0000
  P   P4683     1.0  0.87771  0.26182  0.11763  1.0000
  P   P4684     1.0  0.87948  0.27538  0.04687  1.0000
  P   P4685     1.0  0.86740  0.26128  0.04748  1.0000
  P   P4686     1.0  0.87000  0.27509  0.11753  1.0000
  P   P4687     1.0  0.82420  0.26131  0.11736  1.0000
  P   P4688     1.0  0.82606  0.27488  0.04621  1.0000
  P   P4689     1.0  0.81397  0.26077  0.04714  1.0000
  P   P4690     1.0  0.81694  0.27473  0.11691  1.0000
  P   P4691     1.0  0.77112  0.26092  0.11684  1.0000
  P   P4692     1.0  0.77315  0.27454  0.04536  1.0000
  P   P4693     1.0  0.76095  0.26040  0.04659  1.0000
  P   P4694     1.0  0.76461  0.27461  0.11617  1.0000
  P   P4695     1.0  0.71875  0.26077  0.11631  1.0000
  P   P4696     1.0  0.72105  0.27449  0.04485  1.0000
  P   P4697     1.0  0.70862  0.26027  0.04611  1.0000
  P   P4698     1.0  0.71330  0.27484  0.11591  1.0000
  P   P4699     1.0  0.66741  0.26097  0.11654  1.0000
  P   P4700     1.0  0.67006  0.27487  0.04572  1.0000
  P   P4701     1.0  0.65729  0.26055  0.04651  1.0000
  P   P4702     1.0  0.66284  0.27544  0.11700  1.0000
  P   P4703     1.0  0.61696  0.26158  0.11819  1.0000
  P   P4704     1.0  0.61998  0.27571  0.04806  1.0000
  P   P4705     1.0  0.60697  0.26132  0.04835  1.0000
  P   P4706     1.0  0.61263  0.27627  0.11936  1.0000
  P   P4707     1.0  0.56683  0.26250  0.12089  1.0000
  P   P4708     1.0  0.56979  0.27665  0.05049  1.0000
  P   P4709     1.0  0.55688  0.26231  0.05122  1.0000
  P   P4710     1.0  0.56196  0.27706  0.12161  1.0000
  P   P4711     1.0  0.51628  0.26345  0.12324  1.0000
  P   P4712     1.0  0.51891  0.27748  0.05257  1.0000
  P   P4713     1.0  0.50622  0.26321  0.05360  1.0000
  P   P4714     1.0  0.51071  0.27784  0.12335  1.0000
  P   P4715     1.0  0.46520  0.26442  0.12426  1.0000
  P   P4716     1.0  0.46794  0.27851  0.05371  1.0000
  P   P4717     1.0  0.45558  0.26435  0.05446  1.0000
  P   P4718     1.0  0.45916  0.27873  0.12411  1.0000
  P   P4719     1.0  0.41379  0.26542  0.12346  1.0000
  P   P4720     1.0  0.41703  0.27974  0.05292  1.0000
  P   P4721     1.0  0.40498  0.26567  0.05346  1.0000
  P   P4722     1.0  0.40729  0.27947  0.12325  1.0000
  P   P4723     1.0  0.36185  0.26608  0.12178  1.0000
  P   P4724     1.0  0.36501  0.28037  0.05152  1.0000
  P   P4725     1.0  0.35291  0.26629  0.05183  1.0000
  P   P4726     1.0  0.35455  0.27973  0.12179  1.0000
  P   P4727     1.0  0.30898  0.26622  0.12016  1.0000
  P   P4728     1.0  0.31175  0.28031  0.05020  1.0000
  P   P4729     1.0  0.29956  0.26620  0.05021  1.0000
  P   P4730     1.0  0.30109  0.27955  0.12048  1.0000
  P   P4731     1.0  0.25543  0.26596  0.11904  1.0000
  P   P4732     1.0  0.25782  0.27987  0.04915  1.0000
  P   P4733     1.0  0.24558  0.26574  0.04908  1.0000
  P   P4734     1.0  0.24725  0.27913  0.11953  1.0000
  P   P4735     1.0  0.20154  0.26549  0.11837  1.0000
  P   P4736     1.0  0.20365  0.27927  0.04845  1.0000
  P   P4737     1.0  0.19141  0.26513  0.04840  1.0000
  P   P4738     1.0  0.19325  0.27858  0.11893  1.0000
  P   P4739     1.0  0.14751  0.26492  0.11802  1.0000
  P   P4740     1.0  0.14945  0.27861  0.04804  1.0000
  P   P4741     1.0  0.13723  0.26448  0.04803  1.0000
  P   P4742     1.0  0.13919  0.27798  0.11858  1.0000
  P   P4743     1.0  0.09344  0.26430  0.11786  1.0000
  P   P4744     1.0  0.09528  0.27794  0.04779  1.0000
  P   P4745     1.0  0.08308  0.26381  0.04785  1.0000
  P   P4746     1.0  0.08514  0.27736  0.11837  1.0000
  P   P4747     1.0  0.03938  0.26366  0.11779  1.0000
  P   P4748     1.0  0.04116  0.27727  0.04762  1.0000
  P   P4749     1.0  0.02900  0.26315  0.04775  1.0000
  P   P4750     1.0  0.03115  0.27674  0.11824  1.0000
  P   P4751     1.0  0.98141  0.23581  0.11791  1.0000
  P   P4752     1.0  0.98320  0.24936  0.04790  1.0000
  P   P4753     1.0  0.97110  0.23528  0.04771  1.0000
  P   P4754     1.0  0.97320  0.24889  0.11851  1.0000
  P   P4755     1.0  0.92741  0.23515  0.11803  1.0000
  P   P4756     1.0  0.92919  0.24870  0.04793  1.0000
  P   P4757     1.0  0.91712  0.23461  0.04779  1.0000
  P   P4758     1.0  0.91931  0.24827  0.11855  1.0000
  P   P4759     1.0  0.87351  0.23451  0.11813  1.0000
  P   P4760     1.0  0.87530  0.24805  0.04790  1.0000
  P   P4761     1.0  0.86325  0.23397  0.04786  1.0000
  P   P4762     1.0  0.86556  0.24769  0.11855  1.0000
  P   P4763     1.0  0.81975  0.23391  0.11818  1.0000
  P   P4764     1.0  0.82159  0.24745  0.04775  1.0000
  P   P4765     1.0  0.80952  0.23336  0.04785  1.0000
  P   P4766     1.0  0.81204  0.24717  0.11842  1.0000
  P   P4767     1.0  0.76621  0.23337  0.11807  1.0000
  P   P4768     1.0  0.76814  0.24691  0.04735  1.0000
  P   P4769     1.0  0.75604  0.23281  0.04768  1.0000
  P   P4770     1.0  0.75888  0.24676  0.11803  1.0000
  P   P4771     1.0  0.71304  0.23294  0.11772  1.0000
  P   P4772     1.0  0.71512  0.24651  0.04665  1.0000
  P   P4773     1.0  0.70290  0.23237  0.04727  1.0000
  P   P4774     1.0  0.70636  0.24656  0.11742  1.0000
  P   P4775     1.0  0.66051  0.23273  0.11724  1.0000
  P   P4776     1.0  0.66280  0.24636  0.04610  1.0000
  P   P4777     1.0  0.65036  0.23215  0.04682  1.0000
  P   P4778     1.0  0.65486  0.24669  0.11709  1.0000
  P   P4779     1.0  0.60900  0.23288  0.11740  1.0000
  P   P4780     1.0  0.61150  0.24666  0.04688  1.0000
  P   P4781     1.0  0.59878  0.23236  0.04719  1.0000
  P   P4782     1.0  0.60429  0.24725  0.11811  1.0000
  P   P4783     1.0  0.55846  0.23349  0.11924  1.0000
  P   P4784     1.0  0.56122  0.24750  0.04970  1.0000
  P   P4785     1.0  0.54819  0.23312  0.04943  1.0000
  P   P4786     1.0  0.55405  0.24815  0.12095  1.0000
  P   P4787     1.0  0.50829  0.23448  0.12295  1.0000
  P   P4788     1.0  0.51129  0.24865  0.05276  1.0000
  P   P4789     1.0  0.49804  0.23424  0.05357  1.0000
  P   P4790     1.0  0.50343  0.24910  0.12366  1.0000
  P   P4791     1.0  0.45779  0.23560  0.12560  1.0000
  P   P4792     1.0  0.46083  0.24971  0.05463  1.0000
  P   P4793     1.0  0.44758  0.23532  0.05613  1.0000
  P   P4794     1.0  0.45226  0.25005  0.12495  1.0000
  P   P4795     1.0  0.40679  0.23674  0.12534  1.0000
  P   P4796     1.0  0.41026  0.25094  0.05427  1.0000
  P   P4797     1.0  0.39731  0.23662  0.05530  1.0000
  P   P4798     1.0  0.40095  0.25108  0.12421  1.0000
  P   P4799     1.0  0.35562  0.23784  0.12245  1.0000
  P   P4800     1.0  0.35955  0.25224  0.05158  1.0000
  P   P4801     1.0  0.34705  0.23804  0.05194  1.0000
  P   P4802     1.0  0.34937  0.25185  0.12175  1.0000
  P   P4803     1.0  0.30392  0.23848  0.11988  1.0000
  P   P4804     1.0  0.30728  0.25272  0.04977  1.0000
  P   P4805     1.0  0.29492  0.23855  0.04960  1.0000
  P   P4806     1.0  0.29668  0.25205  0.12006  1.0000
  P   P4807     1.0  0.25109  0.23854  0.11846  1.0000
  P   P4808     1.0  0.25381  0.25253  0.04873  1.0000
  P   P4809     1.0  0.24150  0.23838  0.04829  1.0000
  P   P4810     1.0  0.24320  0.25182  0.11912  1.0000
  P   P4811     1.0  0.19752  0.23822  0.11785  1.0000
  P   P4812     1.0  0.19979  0.25202  0.04816  1.0000
  P   P4813     1.0  0.18754  0.23788  0.04772  1.0000
  P   P4814     1.0  0.18933  0.25135  0.11863  1.0000
  P   P4815     1.0  0.14360  0.23771  0.11766  1.0000
  P   P4816     1.0  0.14561  0.25139  0.04792  1.0000
  P   P4817     1.0  0.13341  0.23727  0.04753  1.0000
  P   P4818     1.0  0.13530  0.25078  0.11844  1.0000
  P   P4819     1.0  0.08955  0.23711  0.11768  1.0000
  P   P4820     1.0  0.09143  0.25072  0.04786  1.0000
  P   P4821     1.0  0.07926  0.23661  0.04754  1.0000
  P   P4822     1.0  0.08124  0.25017  0.11841  1.0000
  P   P4823     1.0  0.03547  0.23646  0.11779  1.0000
  P   P4824     1.0  0.03728  0.25004  0.04787  1.0000
  P   P4825     1.0  0.02515  0.23595  0.04762  1.0000
  P   P4826     1.0  0.02719  0.24953  0.11845  1.0000
  P   P4827     1.0  0.97767  0.20860  0.11822  1.0000
  P   P4828     1.0  0.97944  0.22215  0.04841  1.0000
  P   P4829     1.0  0.96765  0.20816  0.04791  1.0000
  P   P4830     1.0  0.96943  0.22173  0.11893  1.0000
  P   P4831     1.0  0.92363  0.20793  0.11843  1.0000
  P   P4832     1.0  0.92539  0.22147  0.04856  1.0000
  P   P4833     1.0  0.91364  0.20749  0.04809  1.0000
  P   P4834     1.0  0.91545  0.22108  0.11910  1.0000
  P   P4835     1.0  0.86964  0.20726  0.11860  1.0000
  P   P4836     1.0  0.87141  0.22079  0.04868  1.0000
  P   P4837     1.0  0.85968  0.20682  0.04823  1.0000
  P   P4838     1.0  0.86155  0.22044  0.11924  1.0000
  P   P4839     1.0  0.81574  0.20661  0.11874  1.0000
  P   P4840     1.0  0.81752  0.22014  0.04874  1.0000
  P   P4841     1.0  0.80579  0.20616  0.04833  1.0000
  P   P4842     1.0  0.80777  0.21983  0.11931  1.0000
  P   P4843     1.0  0.76195  0.20598  0.11881  1.0000
  P   P4844     1.0  0.76379  0.21952  0.04868  1.0000
  P   P4845     1.0  0.75202  0.20553  0.04836  1.0000
  P   P4846     1.0  0.75418  0.21927  0.11927  1.0000
  P   P4847     1.0  0.70834  0.20541  0.11873  1.0000
  P   P4848     1.0  0.71029  0.21896  0.04838  1.0000
  P   P4849     1.0  0.69842  0.20494  0.04823  1.0000
  P   P4850     1.0  0.70089  0.21881  0.11898  1.0000
  P   P4851     1.0  0.65505  0.20495  0.11839  1.0000
  P   P4852     1.0  0.65714  0.21851  0.04775  1.0000
  P   P4853     1.0  0.64512  0.20445  0.04782  1.0000
  P   P4854     1.0  0.64816  0.21853  0.11841  1.0000
  P   P4855     1.0  0.60231  0.20469  0.11785  1.0000
  P   P4856     1.0  0.60459  0.21831  0.04719  1.0000
  P   P4857     1.0  0.59231  0.20416  0.04728  1.0000
  P   P4858     1.0  0.59640  0.21861  0.11805  1.0000
  P   P4859     1.0  0.55057  0.20481  0.11791  1.0000
  P   P4860     1.0  0.55306  0.21858  0.04813  1.0000
  P   P4861     1.0  0.54045  0.20432  0.04755  1.0000
  P   P4862     1.0  0.54573  0.21916  0.11928  1.0000
  P   P4863     1.0  0.49995  0.20545  0.11998  1.0000
  P   P4864     1.0  0.50259  0.21947  0.05164  1.0000
  P   P4865     1.0  0.48981  0.20517  0.05016  1.0000
  P   P4866     1.0  0.49538  0.22009  0.12285  1.0000
  P   P4867     1.0  0.44969  0.20649  0.12439  1.0000
  P   P4868     1.0  0.45261  0.22074  0.05537  1.0000
  P   P4869     1.0  0.43959  0.20641  0.05520  1.0000
  P   P4870     1.0  0.44469  0.22118  0.12608  1.0000
  P   P4871     1.0  0.39908  0.20771  0.12698  1.0000
  P   P4872     1.0  0.40230  0.22195  0.05679  1.0000
  P   P4873     1.0  0.38914  0.20759  0.05757  1.0000
  P   P4874     1.0  0.39358  0.22230  0.12678  1.0000
  P   P4875     1.0  0.34811  0.20895  0.12579  1.0000
  P   P4876     1.0  0.35203  0.22328  0.05487  1.0000
  P   P4877     1.0  0.33895  0.20892  0.05558  1.0000
  P   P4878     1.0  0.34258  0.22346  0.12443  1.0000
  P   P4879     1.0  0.29725  0.21016  0.12158  1.0000
  P   P4880     1.0  0.30160  0.22461  0.05040  1.0000
  P   P4881     1.0  0.28891  0.21035  0.05073  1.0000
  P   P4882     1.0  0.29135  0.22423  0.12052  1.0000
  P   P4883     1.0  0.24584  0.21078  0.11890  1.0000
  P   P4884     1.0  0.24926  0.22496  0.04859  1.0000
  P   P4885     1.0  0.23686  0.21078  0.04839  1.0000
  P   P4886     1.0  0.23879  0.22438  0.11892  1.0000
  P   P4887     1.0  0.19315  0.21080  0.11791  1.0000
  P   P4888     1.0  0.19577  0.22469  0.04800  1.0000
  P   P4889     1.0  0.18357  0.21057  0.04758  1.0000
  P   P4890     1.0  0.18537  0.22410  0.11842  1.0000
  P   P4891     1.0  0.13965  0.21044  0.11769  1.0000
  P   P4892     1.0  0.14180  0.22415  0.04790  1.0000
  P   P4893     1.0  0.12975  0.21008  0.04743  1.0000
  P   P4894     1.0  0.13152  0.22361  0.11837  1.0000
  P   P4895     1.0  0.08576  0.20989  0.11778  1.0000
  P   P4896     1.0  0.08768  0.22351  0.04803  1.0000
  P   P4897     1.0  0.07575  0.20948  0.04753  1.0000
  P   P4898     1.0  0.07750  0.22302  0.11852  1.0000
  P   P4899     1.0  0.03173  0.20927  0.11799  1.0000
  P   P4900     1.0  0.03354  0.22284  0.04822  1.0000
  P   P4901     1.0  0.02170  0.20883  0.04771  1.0000
  P   P4902     1.0  0.02345  0.22238  0.11873  1.0000
  P   P4903     1.0  0.97430  0.18143  0.11852  1.0000
  P   P4904     1.0  0.97604  0.19499  0.04885  1.0000
  P   P4905     1.0  0.96469  0.18111  0.04809  1.0000
  P   P4906     1.0  0.96610  0.19464  0.11932  1.0000
  P   P4907     1.0  0.92030  0.18076  0.11875  1.0000
  P   P4908     1.0  0.92199  0.19430  0.04907  1.0000
  P   P4909     1.0  0.91070  0.18045  0.04831  1.0000
  P   P4910     1.0  0.91211  0.19398  0.11954  1.0000
  P   P4911     1.0  0.86630  0.18008  0.11897  1.0000
  P   P4912     1.0  0.86798  0.19361  0.04924  1.0000
  P   P4913     1.0  0.85672  0.17977  0.04850  1.0000
  P   P4914     1.0  0.85815  0.19332  0.11973  1.0000
  P   P4915     1.0  0.81233  0.17940  0.11914  1.0000
  P   P4916     1.0  0.81402  0.19293  0.04938  1.0000
  P   P4917     1.0  0.80277  0.17909  0.04865  1.0000
  P   P4918     1.0  0.80424  0.19266  0.11988  1.0000
  P   P4919     1.0  0.75842  0.17874  0.11928  1.0000
  P   P4920     1.0  0.76012  0.19227  0.04947  1.0000
  P   P4921     1.0  0.74887  0.17843  0.04876  1.0000
  P   P4922     1.0  0.75042  0.19203  0.11998  1.0000
  P   P4923     1.0  0.70459  0.17810  0.11933  1.0000
  P   P4924     1.0  0.70635  0.19163  0.04944  1.0000
  P   P4925     1.0  0.69505  0.17777  0.04879  1.0000
  P   P4926     1.0  0.69674  0.19144  0.11996  1.0000
  P   P4927     1.0  0.65090  0.17750  0.11925  1.0000
  P   P4928     1.0  0.65275  0.19105  0.04921  1.0000
  P   P4929     1.0  0.64137  0.17716  0.04866  1.0000
  P   P4930     1.0  0.64331  0.19094  0.11972  1.0000
  P   P4931     1.0  0.59748  0.17701  0.11893  1.0000
  P   P4932     1.0  0.59945  0.19057  0.04868  1.0000
  P   P4933     1.0  0.58791  0.17664  0.04830  1.0000
  P   P4934     1.0  0.59036  0.19061  0.11921  1.0000
  P   P4935     1.0  0.54454  0.17672  0.11843  1.0000
  P   P4936     1.0  0.54665  0.19033  0.04812  1.0000
  P   P4937     1.0  0.53488  0.17633  0.04779  1.0000
  P   P4938     1.0  0.53831  0.19064  0.11881  1.0000
  P   P4939     1.0  0.49251  0.17682  0.11840  1.0000
  P   P4940     1.0  0.49485  0.19059  0.04902  1.0000
  P   P4941     1.0  0.48275  0.17648  0.04796  1.0000
  P   P4942     1.0  0.48741  0.19119  0.12001  1.0000
  P   P4943     1.0  0.44167  0.17747  0.12040  1.0000
  P   P4944     1.0  0.44432  0.19157  0.05293  1.0000
  P   P4945     1.0  0.43202  0.17740  0.05051  1.0000
  P   P4946     1.0  0.43694  0.19216  0.12401  1.0000
  P   P4947     1.0  0.39130  0.17856  0.12444  1.0000
  P   P4948     1.0  0.39423  0.19292  0.05641  1.0000
  P   P4949     1.0  0.38179  0.17874  0.05517  1.0000
  P   P4950     1.0  0.38622  0.19335  0.12701  1.0000
  P   P4951     1.0  0.34064  0.17983  0.12667  1.0000
  P   P4952     1.0  0.34388  0.19418  0.05714  1.0000
  P   P4953     1.0  0.33132  0.17997  0.05710  1.0000
  P   P4954     1.0  0.33528  0.19461  0.12705  1.0000
  P   P4955     1.0  0.28981  0.18117  0.12507  1.0000
  P   P4956     1.0  0.29367  0.19553  0.05444  1.0000
  P   P4957     1.0  0.28110  0.18130  0.05466  1.0000
  P   P4958     1.0  0.28463  0.19590  0.12401  1.0000
  P   P4959     1.0  0.23922  0.18242  0.12133  1.0000
  P   P4960     1.0  0.24342  0.19683  0.05013  1.0000
  P   P4961     1.0  0.23114  0.18268  0.05040  1.0000
  P   P4962     1.0  0.23355  0.19661  0.12032  1.0000
  P   P4963     1.0  0.18797  0.18302  0.11914  1.0000
  P   P4964     1.0  0.19124  0.19711  0.04870  1.0000
  P   P4965     1.0  0.17926  0.18305  0.04846  1.0000
  P   P4966     1.0  0.18111  0.19671  0.11908  1.0000
  P   P4967     1.0  0.13542  0.18300  0.11836  1.0000
  P   P4968     1.0  0.13791  0.19682  0.04837  1.0000
  P   P4969     1.0  0.12615  0.18283  0.04786  1.0000
  P   P4970     1.0  0.12779  0.19640  0.11879  1.0000
  P   P4971     1.0  0.08205  0.18262  0.11820  1.0000
  P   P4972     1.0  0.08409  0.19629  0.04842  1.0000
  P   P4973     1.0  0.07251  0.18235  0.04777  1.0000
  P   P4974     1.0  0.07403  0.19589  0.11887  1.0000
  P   P4975     1.0  0.02826  0.18207  0.11831  1.0000
  P   P4976     1.0  0.03009  0.19566  0.04862  1.0000
  P   P4977     1.0  0.01865  0.18176  0.04789  1.0000
  P   P4978     1.0  0.02009  0.19528  0.11908  1.0000
  P   P4979     1.0  0.97119  0.15426  0.11876  1.0000
  P   P4980     1.0  0.97299  0.16784  0.04902  1.0000
  P   P4981     1.0  0.96194  0.15405  0.04821  1.0000
  P   P4982     1.0  0.96315  0.16757  0.11947  1.0000
  P   P4983     1.0  0.91733  0.15362  0.11892  1.0000
  P   P4984     1.0  0.91902  0.16718  0.04921  1.0000
  P   P4985     1.0  0.90805  0.15341  0.04838  1.0000
  P   P4986     1.0  0.90922  0.16692  0.11967  1.0000
  P   P4987     1.0  0.86339  0.15295  0.11912  1.0000
  P   P4988     1.0  0.86504  0.16650  0.04942  1.0000
  P   P4989     1.0  0.85411  0.15274  0.04858  1.0000
  P   P4990     1.0  0.85527  0.16626  0.11987  1.0000
  P   P4991     1.0  0.80943  0.15227  0.11932  1.0000
  P   P4992     1.0  0.81106  0.16581  0.04960  1.0000
  P   P4993     1.0  0.80016  0.15206  0.04877  1.0000
  P   P4994     1.0  0.80132  0.16559  0.12006  1.0000
  P   P4995     1.0  0.75549  0.15159  0.11950  1.0000
  P   P4996     1.0  0.75711  0.16513  0.04974  1.0000
  P   P4997     1.0  0.74623  0.15138  0.04893  1.0000
  P   P4998     1.0  0.74741  0.16492  0.12020  1.0000
  P   P4999     1.0  0.70157  0.15092  0.11962  1.0000
  P   P5000     1.0  0.70321  0.16446  0.04982  1.0000
  P   P5001     1.0  0.69233  0.15071  0.04904  1.0000
  P   P5002     1.0  0.69356  0.16428  0.12029  1.0000
  P   P5003     1.0  0.64772  0.15027  0.11966  1.0000
  P   P5004     1.0  0.64939  0.16381  0.04980  1.0000
  P   P5005     1.0  0.63849  0.15005  0.04905  1.0000
  P   P5006     1.0  0.63982  0.16367  0.12027  1.0000
  P   P5007     1.0  0.59398  0.14967  0.11957  1.0000
  P   P5008     1.0  0.59571  0.16321  0.04961  1.0000
  P   P5009     1.0  0.58475  0.14944  0.04893  1.0000
  P   P5010     1.0  0.58629  0.16315  0.12006  1.0000
  P   P5011     1.0  0.54046  0.14916  0.11930  1.0000
  P   P5012     1.0  0.54227  0.16272  0.04920  1.0000
  P   P5013     1.0  0.53121  0.14891  0.04863  1.0000
  P   P5014     1.0  0.53318  0.16281  0.11965  1.0000
  P   P5015     1.0  0.48737  0.14885  0.11891  1.0000
  P   P5016     1.0  0.48928  0.16246  0.04883  1.0000
  P   P5017     1.0  0.47806  0.14860  0.04827  1.0000
  P   P5018     1.0  0.48087  0.16282  0.11937  1.0000
  P   P5019     1.0  0.43510  0.14893  0.11895  1.0000
  P   P5020     1.0  0.43722  0.16271  0.04955  1.0000
  P   P5021     1.0  0.42575  0.14877  0.04851  1.0000
  P   P5022     1.0  0.42967  0.16335  0.12034  1.0000
  P   P5023     1.0  0.38397  0.14959  0.12059  1.0000
  P   P5024     1.0  0.38658  0.16376  0.05286  1.0000
  P   P5025     1.0  0.37483  0.14973  0.05065  1.0000
  P   P5026     1.0  0.37907  0.16437  0.12373  1.0000
  P   P5027     1.0  0.33345  0.15071  0.12377  1.0000
  P   P5028     1.0  0.33639  0.16515  0.05602  1.0000
  P   P5029     1.0  0.32453  0.15111  0.05432  1.0000
  P   P5030     1.0  0.32839  0.16564  0.12652  1.0000
  P   P5031     1.0  0.28283  0.15204  0.12563  1.0000
  P   P5032     1.0  0.28598  0.16643  0.05635  1.0000
  P   P5033     1.0  0.27406  0.15237  0.05585  1.0000
  P   P5034     1.0  0.27770  0.16703  0.12627  1.0000
  P   P5035     1.0  0.23221  0.15345  0.12436  1.0000
  P   P5036     1.0  0.23576  0.16777  0.05351  1.0000
  P   P5037     1.0  0.22385  0.15371  0.05387  1.0000
  P   P5038     1.0  0.22731  0.16833  0.12332  1.0000
  P   P5039     1.0  0.18179  0.15468  0.12170  1.0000
  P   P5040     1.0  0.18560  0.16899  0.05048  1.0000
  P   P5041     1.0  0.17388  0.15499  0.05079  1.0000
  P   P5042     1.0  0.17618  0.16898  0.12077  1.0000
  P   P5043     1.0  0.13054  0.15523  0.11990  1.0000
  P   P5044     1.0  0.13363  0.16925  0.04932  1.0000
  P   P5045     1.0  0.12214  0.15532  0.04906  1.0000
  P   P5046     1.0  0.12383  0.16903  0.11971  1.0000
  P   P5047     1.0  0.07811  0.15520  0.11905  1.0000
  P   P5048     1.0  0.08051  0.16897  0.04893  1.0000
  P   P5049     1.0  0.06920  0.15511  0.04837  1.0000
  P   P5050     1.0  0.07064  0.16870  0.11935  1.0000
  P   P5051     1.0  0.02486  0.15481  0.11875  1.0000
  P   P5052     1.0  0.02686  0.16846  0.04889  1.0000
  P   P5053     1.0  0.01571  0.15464  0.04816  1.0000
  P   P5054     1.0  0.01699  0.16818  0.11933  1.0000
  P   P5055     1.0  0.96803  0.12702  0.11920  1.0000
  P   P5056     1.0  0.97002  0.14066  0.04918  1.0000
  P   P5057     1.0  0.95913  0.12691  0.04850  1.0000
  P   P5058     1.0  0.96029  0.14047  0.11961  1.0000
  P   P5059     1.0  0.91447  0.12647  0.11908  1.0000
  P   P5060     1.0  0.91625  0.14006  0.04923  1.0000
  P   P5061     1.0  0.90544  0.12633  0.04845  1.0000
  P   P5062     1.0  0.90652  0.13986  0.11967  1.0000
  P   P5063     1.0  0.86068  0.12584  0.11917  1.0000
  P   P5064     1.0  0.86236  0.13940  0.04939  1.0000
  P   P5065     1.0  0.85160  0.12569  0.04856  1.0000
  P   P5066     1.0  0.85265  0.13921  0.11984  1.0000
  P   P5067     1.0  0.80680  0.12518  0.11934  1.0000
  P   P5068     1.0  0.80841  0.13872  0.04958  1.0000
  P   P5069     1.0  0.79770  0.12502  0.04875  1.0000
  P   P5070     1.0  0.79873  0.13854  0.12003  1.0000
  P   P5071     1.0  0.75288  0.12450  0.11953  1.0000
  P   P5072     1.0  0.75446  0.13804  0.04977  1.0000
  P   P5073     1.0  0.74378  0.12434  0.04894  1.0000
  P   P5074     1.0  0.74481  0.13787  0.12022  1.0000
  P   P5075     1.0  0.69895  0.12382  0.11971  1.0000
  P   P5076     1.0  0.70053  0.13735  0.04991  1.0000
  P   P5077     1.0  0.68986  0.12366  0.04910  1.0000
  P   P5078     1.0  0.69090  0.13720  0.12036  1.0000
  P   P5079     1.0  0.64504  0.12315  0.11983  1.0000
  P   P5080     1.0  0.64663  0.13668  0.04999  1.0000
  P   P5081     1.0  0.63597  0.12299  0.04921  1.0000
  P   P5082     1.0  0.63704  0.13654  0.12043  1.0000
  P   P5083     1.0  0.59118  0.12249  0.11986  1.0000
  P   P5084     1.0  0.59280  0.13603  0.04997  1.0000
  P   P5085     1.0  0.58212  0.12233  0.04922  1.0000
  P   P5086     1.0  0.58327  0.13593  0.12040  1.0000
  P   P5087     1.0  0.53741  0.12188  0.11977  1.0000
  P   P5088     1.0  0.53907  0.13542  0.04980  1.0000
  P   P5089     1.0  0.52837  0.12172  0.04910  1.0000
  P   P5090     1.0  0.52968  0.13540  0.12020  1.0000
  P   P5091     1.0  0.48384  0.12137  0.11952  1.0000
  P   P5092     1.0  0.48556  0.13493  0.04948  1.0000
  P   P5093     1.0  0.47480  0.12121  0.04884  1.0000
  P   P5094     1.0  0.47649  0.13507  0.11987  1.0000
  P   P5095     1.0  0.43067  0.12106  0.11922  1.0000
  P   P5096     1.0  0.43246  0.13468  0.04927  1.0000
  P   P5097     1.0  0.42160  0.12091  0.04859  1.0000
  P   P5098     1.0  0.42402  0.13508  0.11970  1.0000
  P   P5099     1.0  0.37826  0.12114  0.11932  1.0000
  P   P5100     1.0  0.38023  0.13494  0.04995  1.0000
  P   P5101     1.0  0.36921  0.12112  0.04890  1.0000
  P   P5102     1.0  0.37257  0.13563  0.12054  1.0000
  P   P5103     1.0  0.32688  0.12181  0.12062  1.0000
  P   P5104     1.0  0.32938  0.13601  0.05240  1.0000
  P   P5105     1.0  0.31813  0.12211  0.05064  1.0000
  P   P5106     1.0  0.32183  0.13668  0.12308  1.0000
  P   P5107     1.0  0.27621  0.12295  0.12312  1.0000
  P   P5108     1.0  0.27911  0.13741  0.05529  1.0000
  P   P5109     1.0  0.26770  0.12349  0.05352  1.0000
  P   P5110     1.0  0.27123  0.13802  0.12568  1.0000
  P   P5111     1.0  0.22566  0.12432  0.12479  1.0000
  P   P5112     1.0  0.22867  0.13871  0.05552  1.0000
  P   P5113     1.0  0.21721  0.12477  0.05488  1.0000
  P   P5114     1.0  0.22078  0.13948  0.12548  1.0000
  P   P5115     1.0  0.17523  0.12575  0.12426  1.0000
  P   P5116     1.0  0.17844  0.14002  0.05338  1.0000
  P   P5117     1.0  0.16702  0.12608  0.05380  1.0000
  P   P5118     1.0  0.17040  0.14073  0.12339  1.0000
  P   P5119     1.0  0.12481  0.12693  0.12246  1.0000
  P   P5120     1.0  0.12829  0.14115  0.05111  1.0000
  P   P5121     1.0  0.11697  0.12726  0.05154  1.0000
  P   P5122     1.0  0.11921  0.14131  0.12142  1.0000
  P   P5123     1.0  0.07352  0.12744  0.12073  1.0000
  P   P5124     1.0  0.07648  0.14140  0.04991  1.0000
  P   P5125     1.0  0.06533  0.12757  0.04979  1.0000
  P   P5126     1.0  0.06693  0.14132  0.12029  1.0000
  P   P5127     1.0  0.02117  0.12740  0.11967  1.0000
  P   P5128     1.0  0.02353  0.14115  0.04935  1.0000
  P   P5129     1.0  0.01252  0.12736  0.04887  1.0000
  P   P5130     1.0  0.01384  0.14099  0.11976  1.0000
  P   P5131     1.0  0.96446  0.09961  0.12023  1.0000
  P   P5132     1.0  0.96682  0.11335  0.04971  1.0000
  P   P5133     1.0  0.95598  0.09960  0.04934  1.0000
  P   P5134     1.0  0.95724  0.11326  0.12011  1.0000
  P   P5135     1.0  0.91142  0.09924  0.11956  1.0000
  P   P5136     1.0  0.91341  0.11288  0.04939  1.0000
  P   P5137     1.0  0.90266  0.09916  0.04878  1.0000
  P   P5138     1.0  0.90378  0.11274  0.11982  1.0000
  P   P5139     1.0  0.85793  0.09870  0.11932  1.0000
  P   P5140     1.0  0.85972  0.11228  0.04936  1.0000
  P   P5141     1.0  0.84903  0.09859  0.04862  1.0000
  P   P5142     1.0  0.85007  0.11213  0.11981  1.0000
  P   P5143     1.0  0.80421  0.09808  0.11933  1.0000
  P   P5144     1.0  0.80588  0.11164  0.04949  1.0000
  P   P5145     1.0  0.79524  0.09795  0.04868  1.0000
  P   P5146     1.0  0.79624  0.11148  0.11993  1.0000
  P   P5147     1.0  0.75038  0.09742  0.11947  1.0000
  P   P5148     1.0  0.75198  0.11096  0.04967  1.0000
  P   P5149     1.0  0.74138  0.09729  0.04884  1.0000
  P   P5150     1.0  0.74235  0.11081  0.12012  1.0000
  P   P5151     1.0  0.69649  0.09674  0.11965  1.0000
  P   P5152     1.0  0.69806  0.11028  0.04986  1.0000
  P   P5153     1.0  0.68748  0.09661  0.04903  1.0000
  P   P5154     1.0  0.68845  0.11014  0.12030  1.0000
  P   P5155     1.0  0.64258  0.09606  0.11983  1.0000
  P   P5156     1.0  0.64414  0.10959  0.05001  1.0000
  P   P5157     1.0  0.63358  0.09593  0.04920  1.0000
  P   P5158     1.0  0.63455  0.10947  0.12044  1.0000
  P   P5159     1.0  0.58868  0.09539  0.11994  1.0000
  P   P5160     1.0  0.59025  0.10892  0.05008  1.0000
  P   P5161     1.0  0.57970  0.09526  0.04930  1.0000
  P   P5162     1.0  0.58069  0.10882  0.12051  1.0000
  P   P5163     1.0  0.53482  0.09474  0.11997  1.0000
  P   P5164     1.0  0.53641  0.10827  0.05006  1.0000
  P   P5165     1.0  0.52586  0.09461  0.04931  1.0000
  P   P5166     1.0  0.52691  0.10820  0.12046  1.0000
  P   P5167     1.0  0.48105  0.09413  0.11988  1.0000
  P   P5168     1.0  0.48267  0.10767  0.04990  1.0000
  P   P5169     1.0  0.47211  0.09400  0.04920  1.0000
  P   P5170     1.0  0.47331  0.10768  0.12027  1.0000
  P   P5171     1.0  0.42746  0.09362  0.11963  1.0000
  P   P5172     1.0  0.42913  0.10718  0.04962  1.0000
  P   P5173     1.0  0.41854  0.09350  0.04895  1.0000
  P   P5174     1.0  0.42009  0.10735  0.11997  1.0000
  P   P5175     1.0  0.37427  0.09332  0.11936  1.0000
  P   P5176     1.0  0.37599  0.10695  0.04949  1.0000
  P   P5177     1.0  0.36534  0.09324  0.04874  1.0000
  P   P5178     1.0  0.36755  0.10740  0.11984  1.0000
  P   P5179     1.0  0.32178  0.09342  0.11947  1.0000
  P   P5180     1.0  0.32368  0.10724  0.05016  1.0000
  P   P5181     1.0  0.31294  0.09348  0.04906  1.0000
  P   P5182     1.0  0.31596  0.10798  0.12058  1.0000
  P   P5183     1.0  0.27028  0.09411  0.12056  1.0000
  P   P5184     1.0  0.27265  0.10831  0.05215  1.0000
  P   P5185     1.0  0.26174  0.09451  0.05058  1.0000
  P   P5186     1.0  0.26511  0.10907  0.12266  1.0000
  P   P5187     1.0  0.21950  0.09526  0.12269  1.0000
  P   P5188     1.0  0.22226  0.10971  0.05458  1.0000
  P   P5189     1.0  0.21118  0.09587  0.05301  1.0000
  P   P5190     1.0  0.21459  0.11045  0.12489  1.0000
  P   P5191     1.0  0.16900  0.09666  0.12439  1.0000
  P   P5192     1.0  0.17182  0.11102  0.05504  1.0000
  P   P5193     1.0  0.16068  0.09716  0.05446  1.0000
  P   P5194     1.0  0.16425  0.11191  0.12511  1.0000
  P   P5195     1.0  0.11864  0.09808  0.12459  1.0000
  P   P5196     1.0  0.12158  0.11228  0.05380  1.0000
  P   P5197     1.0  0.11046  0.09843  0.05418  1.0000
  P   P5198     1.0  0.11377  0.11308  0.12390  1.0000
  P   P5199     1.0  0.06812  0.09918  0.12330  1.0000
  P   P5200     1.0  0.07137  0.11332  0.05186  1.0000
  P   P5201     1.0  0.06031  0.09951  0.05238  1.0000
  P   P5202     1.0  0.06250  0.11360  0.12215  1.0000
  P   P5203     1.0  0.01677  0.09965  0.12151  1.0000
  P   P5204     1.0  0.01964  0.11358  0.05049  1.0000
  P   P5205     1.0  0.00871  0.09980  0.05049  1.0000
  P   P5206     1.0  0.01025  0.11360  0.12084  1.0000
  P   P5207     1.0  0.96019  0.07187  0.12220  1.0000
  P   P5208     1.0  0.96300  0.08577  0.05104  1.0000
  P   P5209     1.0  0.95220  0.07203  0.05113  1.0000
  P   P5210     1.0  0.95371  0.08585  0.12136  1.0000
  P   P5211     1.0  0.90790  0.07182  0.12072  1.0000
  P   P5212     1.0  0.91026  0.08555  0.05006  1.0000
  P   P5213     1.0  0.89952  0.07184  0.04976  1.0000
  P   P5214     1.0  0.90076  0.08551  0.12044  1.0000
  P   P5215     1.0  0.85492  0.07146  0.11987  1.0000
  P   P5216     1.0  0.85693  0.08510  0.04959  1.0000
  P   P5217     1.0  0.84625  0.07140  0.04904  1.0000
  P   P5218     1.0  0.84735  0.08500  0.12001  1.0000
  P   P5219     1.0  0.80150  0.07094  0.11950  1.0000
  P   P5220     1.0  0.80330  0.08452  0.04947  1.0000
  P   P5221     1.0  0.79267  0.07084  0.04877  1.0000
  P   P5222     1.0  0.79370  0.08439  0.11991  1.0000
  P   P5223     1.0  0.74783  0.07032  0.11944  1.0000
  P   P5224     1.0  0.74951  0.08388  0.04955  1.0000
  P   P5225     1.0  0.73892  0.07021  0.04876  1.0000
  P   P5226     1.0  0.73991  0.08375  0.12000  1.0000
  P   P5227     1.0  0.69403  0.06966  0.11954  1.0000
  P   P5228     1.0  0.69564  0.08321  0.04971  1.0000
  P   P5229     1.0  0.68509  0.06955  0.04889  1.0000
  P   P5230     1.0  0.68605  0.08308  0.12016  1.0000
  P   P5231     1.0  0.64018  0.06899  0.11971  1.0000
  P   P5232     1.0  0.64175  0.08253  0.04990  1.0000
  P   P5233     1.0  0.63122  0.06887  0.04907  1.0000
  P   P5234     1.0  0.63217  0.08241  0.12034  1.0000
  P   P5235     1.0  0.58629  0.06831  0.11988  1.0000
  P   P5236     1.0  0.58785  0.08184  0.05005  1.0000
  P   P5237     1.0  0.57733  0.06820  0.04924  1.0000
  P   P5238     1.0  0.57828  0.08174  0.12048  1.0000
  P   P5239     1.0  0.53241  0.06764  0.12000  1.0000
  P   P5240     1.0  0.53397  0.08117  0.05013  1.0000
  P   P5241     1.0  0.52346  0.06753  0.04935  1.0000
  P   P5242     1.0  0.52443  0.08109  0.12055  1.0000
  P   P5243     1.0  0.47856  0.06699  0.12002  1.0000
  P   P5244     1.0  0.48014  0.08053  0.05010  1.0000
  P   P5245     1.0  0.46964  0.06688  0.04935  1.0000
  P   P5246     1.0  0.47065  0.08048  0.12049  1.0000
  P   P5247     1.0  0.42479  0.06639  0.11991  1.0000
  P   P5248     1.0  0.42640  0.07993  0.04993  1.0000
  P   P5249     1.0  0.41590  0.06628  0.04923  1.0000
  P   P5250     1.0  0.41706  0.07996  0.12029  1.0000
  P   P5251     1.0  0.37121  0.06589  0.11966  1.0000
  P   P5252     1.0  0.37286  0.07946  0.04966  1.0000
  P   P5253     1.0  0.36234  0.06580  0.04897  1.0000
  P   P5254     1.0  0.36383  0.07965  0.11997  1.0000
  P   P5255     1.0  0.31801  0.06560  0.11937  1.0000
  P   P5256     1.0  0.31971  0.07924  0.04954  1.0000
  P   P5257     1.0  0.30917  0.06556  0.04876  1.0000
  P   P5258     1.0  0.31129  0.07973  0.11984  1.0000
  P   P5259     1.0  0.26552  0.06573  0.11947  1.0000
  P   P5260     1.0  0.26738  0.07956  0.05018  1.0000
  P   P5261     1.0  0.25678  0.06585  0.04907  1.0000
  P   P5262     1.0  0.25966  0.08037  0.12049  1.0000
  P   P5263     1.0  0.21398  0.06645  0.12044  1.0000
  P   P5264     1.0  0.21624  0.08064  0.05195  1.0000
  P   P5265     1.0  0.20554  0.06690  0.05048  1.0000
  P   P5266     1.0  0.20876  0.08148  0.12234  1.0000
  P   P5267     1.0  0.16314  0.06763  0.12243  1.0000
  P   P5268     1.0  0.16574  0.08204  0.05412  1.0000
  P   P5269     1.0  0.15489  0.06826  0.05274  1.0000
  P   P5270     1.0  0.15827  0.08289  0.12441  1.0000
  P   P5271     1.0  0.11265  0.06903  0.12431  1.0000
  P   P5272     1.0  0.11527  0.08334  0.05501  1.0000
  P   P5273     1.0  0.10435  0.06954  0.05442  1.0000
  P   P5274     1.0  0.10791  0.08430  0.12519  1.0000
  P   P5275     1.0  0.06226  0.07039  0.12508  1.0000
  P   P5276     1.0  0.06500  0.08454  0.05439  1.0000
  P   P5277     1.0  0.05407  0.07075  0.05471  1.0000
  P   P5278     1.0  0.05730  0.08539  0.12453  1.0000
  P   P5279     1.0  0.01162  0.07143  0.12406  1.0000
  P   P5280     1.0  0.01469  0.08552  0.05259  1.0000
  P   P5281     1.0  0.00381  0.07175  0.05314  1.0000
  P   P5282     1.0  0.00594  0.08586  0.12285  1.0000
  P   P5283     1.0  0.95522  0.04368  0.12469  1.0000
  P   P5284     1.0  0.95819  0.05773  0.05323  1.0000
  P   P5285     1.0  0.94742  0.04400  0.05376  1.0000
  P   P5286     1.0  0.94949  0.05811  0.12347  1.0000
  P   P5287     1.0  0.90372  0.04408  0.12276  1.0000
  P   P5288     1.0  0.90649  0.05797  0.05154  1.0000
  P   P5289     1.0  0.89578  0.04426  0.05167  1.0000
  P   P5290     1.0  0.89725  0.05809  0.12183  1.0000
  P   P5291     1.0  0.85143  0.04404  0.12114  1.0000
  P   P5292     1.0  0.85379  0.05777  0.05039  1.0000
  P   P5293     1.0  0.84312  0.04407  0.05014  1.0000
  P   P5294     1.0  0.84433  0.05776  0.12075  1.0000
  P   P5295     1.0  0.79848  0.04369  0.12014  1.0000
  P   P5296     1.0  0.80051  0.05732  0.04978  1.0000
  P   P5297     1.0  0.78988  0.04364  0.04927  1.0000
  P   P5298     1.0  0.79097  0.05725  0.12019  1.0000
  P   P5299     1.0  0.74511  0.04317  0.11966  1.0000
  P   P5300     1.0  0.74693  0.05675  0.04956  1.0000
  P   P5301     1.0  0.73634  0.04308  0.04889  1.0000
  P   P5302     1.0  0.73736  0.05665  0.12000  1.0000
  P   P5303     1.0  0.69149  0.04256  0.11952  1.0000
  P   P5304     1.0  0.69318  0.05612  0.04959  1.0000
  P   P5305     1.0  0.68262  0.04246  0.04882  1.0000
  P   P5306     1.0  0.68361  0.05600  0.12004  1.0000
  P   P5307     1.0  0.63773  0.04191  0.11958  1.0000
  P   P5308     1.0  0.63935  0.05545  0.04973  1.0000
  P   P5309     1.0  0.62882  0.04180  0.04891  1.0000
  P   P5310     1.0  0.62978  0.05534  0.12018  1.0000
  P   P5311     1.0  0.58390  0.04124  0.11973  1.0000
  P   P5312     1.0  0.58548  0.05478  0.04991  1.0000
  P   P5313     1.0  0.57497  0.04113  0.04908  1.0000
  P   P5314     1.0  0.57591  0.05467  0.12035  1.0000
  P   P5315     1.0  0.53004  0.04057  0.11990  1.0000
  P   P5316     1.0  0.53160  0.05410  0.05006  1.0000
  P   P5317     1.0  0.52110  0.04046  0.04924  1.0000
  P   P5318     1.0  0.52205  0.05400  0.12049  1.0000
  P   P5319     1.0  0.47617  0.03990  0.12001  1.0000
  P   P5320     1.0  0.47773  0.05343  0.05014  1.0000
  P   P5321     1.0  0.46725  0.03979  0.04935  1.0000
  P   P5322     1.0  0.46820  0.05335  0.12055  1.0000
  P   P5323     1.0  0.42233  0.03925  0.12002  1.0000
  P   P5324     1.0  0.42391  0.05279  0.05010  1.0000
  P   P5325     1.0  0.41343  0.03915  0.04935  1.0000
  P   P5326     1.0  0.41444  0.05275  0.12048  1.0000
  P   P5327     1.0  0.36857  0.03866  0.11989  1.0000
  P   P5328     1.0  0.37019  0.05220  0.04991  1.0000
  P   P5329     1.0  0.35971  0.03856  0.04920  1.0000
  P   P5330     1.0  0.36085  0.05225  0.12025  1.0000
  P   P5331     1.0  0.31500  0.03817  0.11961  1.0000
  P   P5332     1.0  0.31666  0.05174  0.04961  1.0000
  P   P5333     1.0  0.30618  0.03809  0.04892  1.0000
  P   P5334     1.0  0.30765  0.05196  0.11990  1.0000
  P   P5335     1.0  0.26183  0.03791  0.11930  1.0000
  P   P5336     1.0  0.26353  0.05156  0.04948  1.0000
  P   P5337     1.0  0.25303  0.03789  0.04868  1.0000
  P   P5338     1.0  0.25514  0.05207  0.11974  1.0000
  P   P5339     1.0  0.20937  0.03807  0.11937  1.0000
  P   P5340     1.0  0.21122  0.05191  0.05010  1.0000
  P   P5341     1.0  0.20069  0.03822  0.04898  1.0000
  P   P5342     1.0  0.20353  0.05276  0.12035  1.0000
  P   P5343     1.0  0.15784  0.03882  0.12032  1.0000
  P   P5344     1.0  0.16003  0.05301  0.05179  1.0000
  P   P5345     1.0  0.14944  0.03929  0.05037  1.0000
  P   P5346     1.0  0.15262  0.05391  0.12210  1.0000
  P   P5347     1.0  0.10699  0.04002  0.12228  1.0000
  P   P5348     1.0  0.10944  0.05439  0.05391  1.0000
  P   P5349     1.0  0.09873  0.04065  0.05263  1.0000
  P   P5350     1.0  0.10211  0.05531  0.12421  1.0000
  P   P5351     1.0  0.05647  0.04140  0.12440  1.0000
  P   P5352     1.0  0.05893  0.05567  0.05519  1.0000
  P   P5353     1.0  0.04814  0.04191  0.05454  1.0000
  P   P5354     1.0  0.05167  0.05666  0.12545  1.0000
  P   P5355     1.0  0.00599  0.04270  0.12555  1.0000
  P   P5356     1.0  0.00859  0.05681  0.05498  1.0000
  P   P5357     1.0  0.99778  0.04305  0.05520  1.0000
  P   P5358     1.0  0.00093  0.05767  0.12514  1.0000
  P   P5359     1.0  0.99199  0.01426  0.05470  1.0000
  P   P5360     1.0  0.94979  0.01501  0.12592  1.0000
  P   P5361     1.0  0.95229  0.02909  0.05546  1.0000
  P   P5362     1.0  0.94155  0.01535  0.05560  1.0000
  P   P5363     1.0  0.94461  0.02994  0.12564  1.0000
  P   P5364     1.0  0.89890  0.01593  0.12517  1.0000
  P   P5365     1.0  0.90180  0.02996  0.05376  1.0000
  P   P5366     1.0  0.89110  0.01625  0.05425  1.0000
  P   P5367     1.0  0.89310  0.03035  0.12398  1.0000
  P   P5368     1.0  0.84733  0.01631  0.12322  1.0000
  P   P5369     1.0  0.85007  0.03019  0.05197  1.0000
  P   P5370     1.0  0.83943  0.01649  0.05210  1.0000
  P   P5371     1.0  0.84084  0.03032  0.12224  1.0000
  P   P5372     1.0  0.79502  0.01626  0.12149  1.0000
  P   P5373     1.0  0.79738  0.02999  0.05068  1.0000
  P   P5374     1.0  0.78676  0.01630  0.05046  1.0000
  P   P5375     1.0  0.78794  0.02999  0.12103  1.0000
  P   P5376     1.0  0.74210  0.01592  0.12037  1.0000
  P   P5377     1.0  0.74414  0.02955  0.04995  1.0000
  P   P5378     1.0  0.73354  0.01587  0.04948  1.0000
  P   P5379     1.0  0.73462  0.02949  0.12035  1.0000
  P   P5380     1.0  0.68876  0.01541  0.11979  1.0000
  P   P5381     1.0  0.69060  0.02899  0.04965  1.0000
  P   P5382     1.0  0.68003  0.01532  0.04900  1.0000
  P   P5383     1.0  0.68105  0.02890  0.12008  1.0000
  P   P5384     1.0  0.63517  0.01481  0.11959  1.0000
  P   P5385     1.0  0.63688  0.02836  0.04962  1.0000
  P   P5386     1.0  0.62634  0.01471  0.04886  1.0000
  P   P5387     1.0  0.62732  0.02826  0.12007  1.0000
  P   P5388     1.0  0.58144  0.01416  0.11961  1.0000
  P   P5389     1.0  0.58307  0.02770  0.04973  1.0000
  P   P5390     1.0  0.57255  0.01405  0.04892  1.0000
  P   P5391     1.0  0.57352  0.02760  0.12019  1.0000
  P   P5392     1.0  0.52764  0.01350  0.11974  1.0000
  P   P5393     1.0  0.52923  0.02703  0.04990  1.0000
  P   P5394     1.0  0.51872  0.01339  0.04907  1.0000
  P   P5395     1.0  0.51967  0.02693  0.12035  1.0000
  P   P5396     1.0  0.47379  0.01283  0.11989  1.0000
  P   P5397     1.0  0.47536  0.02636  0.05004  1.0000
  P   P5398     1.0  0.46487  0.01272  0.04923  1.0000
  P   P5399     1.0  0.46582  0.02626  0.12048  1.0000
  P   P5400     1.0  0.41994  0.01216  0.11999  1.0000
  P   P5401     1.0  0.42151  0.02569  0.05011  1.0000
  P   P5402     1.0  0.41103  0.01205  0.04932  1.0000
  P   P5403     1.0  0.41199  0.02562  0.12053  1.0000
  P   P5404     1.0  0.36612  0.01152  0.11999  1.0000
  P   P5405     1.0  0.36771  0.02506  0.05006  1.0000
  P   P5406     1.0  0.35723  0.01142  0.04931  1.0000
  P   P5407     1.0  0.35824  0.02502  0.12043  1.0000
  P   P5408     1.0  0.31237  0.01093  0.11984  1.0000
  P   P5409     1.0  0.31400  0.02448  0.04985  1.0000
  P   P5410     1.0  0.30353  0.01084  0.04914  1.0000
  P   P5411     1.0  0.30468  0.02453  0.12017  1.0000
  P   P5412     1.0  0.25883  0.01046  0.11952  1.0000
  P   P5413     1.0  0.26049  0.02404  0.04952  1.0000
  P   P5414     1.0  0.25002  0.01039  0.04883  1.0000
  P   P5415     1.0  0.25150  0.02427  0.11979  1.0000
  P   P5416     1.0  0.20568  0.01022  0.11917  1.0000
  P   P5417     1.0  0.20740  0.02388  0.04936  1.0000
  P   P5418     1.0  0.19691  0.01021  0.04856  1.0000
  P   P5419     1.0  0.19903  0.02442  0.11960  1.0000
  P   P5420     1.0  0.15327  0.01042  0.11923  1.0000
  P   P5421     1.0  0.15512  0.02427  0.04999  1.0000
  P   P5422     1.0  0.14462  0.01059  0.04886  1.0000
  P   P5423     1.0  0.14746  0.02515  0.12020  1.0000
  P   P5424     1.0  0.10177  0.01120  0.12020  1.0000
  P   P5425     1.0  0.10392  0.02538  0.05167  1.0000
  P   P5426     1.0  0.09338  0.01168  0.05028  1.0000
  P   P5427     1.0  0.09657  0.02633  0.12195  1.0000
  P   P5428     1.0  0.05093  0.01241  0.12221  1.0000
  P   P5429     1.0  0.05328  0.02676  0.05384  1.0000
  P   P5430     1.0  0.04265  0.01304  0.05259  1.0000
  P   P5431     1.0  0.04602  0.02770  0.12416  1.0000
  P   P5432     1.0  0.00037  0.01377  0.12453  1.0000
  P   P5433     1.0  0.00270  0.02800  0.05542  1.0000
  P   P5434     1.0  0.99548  0.02899  0.12574  1.0000
  P   P5435     1.0  0.98995  0.00008  0.12419  1.0000
  P   P5436     1.0  0.94654  0.00033  0.05562  1.0000
  P   P5437     1.0  0.93932  0.00130  0.12598  1.0000
  P   P5438     1.0  0.89605  0.00137  0.05582  1.0000
  P   P5439     1.0  0.88835  0.00221  0.12602  1.0000
  P   P5440     1.0  0.84548  0.00221  0.05417  1.0000
  P   P5441     1.0  0.83677  0.00260  0.12438  1.0000
  P   P5442     1.0  0.79372  0.00242  0.05232  1.0000
  P   P5443     1.0  0.78448  0.00256  0.12257  1.0000
  P   P5444     1.0  0.74102  0.00221  0.05093  1.0000
  P   P5445     1.0  0.73159  0.00223  0.12126  1.0000
  P   P5446     1.0  0.68780  0.00178  0.05010  1.0000
  P   P5447     1.0  0.67829  0.00173  0.12050  1.0000
  P   P5448     1.0  0.63428  0.00123  0.04972  1.0000
  P   P5449     1.0  0.62474  0.00114  0.12016  1.0000
  P   P5450     1.0  0.58059  0.00061  0.04964  1.0000
  P   P5451     1.0  0.57104  0.00051  0.12009  1.0000
  P   P5452     1.0  0.52681  0.99995  0.04973  1.0000
  P   P5453     1.0  0.51726  0.99985  0.12018  1.0000
  P   P5454     1.0  0.47298  0.99929  0.04988  1.0000
  P   P5455     1.0  0.46343  0.99918  0.12033  1.0000
  P   P5456     1.0  0.41913  0.99862  0.05002  1.0000
  P   P5457     1.0  0.40960  0.99852  0.12045  1.0000
  P   P5458     1.0  0.36530  0.99796  0.05008  1.0000
  P   P5459     1.0  0.35578  0.99788  0.12049  1.0000
  P   P5460     1.0  0.31151  0.99732  0.05000  1.0000
  P   P5461     1.0  0.30205  0.99730  0.12037  1.0000
  P   P5462     1.0  0.25782  0.99676  0.04976  1.0000
  P   P5463     1.0  0.24851  0.99682  0.12007  1.0000
  P   P5464     1.0  0.20434  0.99634  0.04940  1.0000
  P   P5465     1.0  0.19537  0.99659  0.11965  1.0000
  P   P5466     1.0  0.15128  0.99620  0.04922  1.0000
  P   P5467     1.0  0.14295  0.99677  0.11944  1.0000
  P   P5468     1.0  0.09905  0.99664  0.04987  1.0000
  P   P5469     1.0  0.09143  0.99753  0.12007  1.0000
  P   P5470     1.0  0.04785  0.99776  0.05158  1.0000
  P   P5471     1.0  0.04055  0.99873  0.12185  1.0000
  P   P5472     1.0  0.99718  0.99913  0.05383  1.0000
